<routes>
    <vType accel="1.0" decel="5.0" id="Car" jmIgnoreKeepClearTime="100.0" maxSpeed="30" length="3" />
        
    <!--emergencyDecel="0.0"-->
    <trip id="0" depart="1" from="n43-n57" to="n54-n19"/>
<trip id="1" depart="2" from="n19-n54" to="n5-n23"/>
<trip id="2" depart="3" from="n38-n53" to="n57-n43"/>
<trip id="3" depart="4" from="n19-n54" to="n26-n37"/>
<trip id="4" depart="5" from="n38-n53" to="n32-n44"/>
<trip id="5" depart="5" from="n42-n30" to="n54-n19"/>
<trip id="6" depart="8" from="n18-n2" to="n57-n43"/>
<trip id="7" depart="9" from="n19-n54" to="n2-n18"/>
<trip id="8" depart="10" from="n43-n57" to="n53-n38"/>
<trip id="9" depart="19" from="n38-n53" to="n57-n43"/>
<trip id="10" depart="19" from="n19-n54" to="n22-n35"/>
<trip id="11" depart="21" from="n43-n57" to="n53-n38"/>
<trip id="12" depart="22" from="n42-n30" to="n2-n18"/>
<trip id="13" depart="24" from="n38-n53" to="n30-n42"/>
<trip id="14" depart="31" from="n42-n30" to="n29-n41"/>
<trip id="15" depart="32" from="n27-n51" to="n53-n38"/>
<trip id="16" depart="33" from="n18-n2" to="n51-n27"/>
<trip id="17" depart="35" from="n23-n5" to="n57-n43"/>
<trip id="18" depart="40" from="n23-n5" to="n51-n27"/>
<trip id="19" depart="52" from="n35-n22" to="n53-n38"/>
<trip id="20" depart="54" from="n19-n54" to="n53-n38"/>
<trip id="21" depart="56" from="n38-n53" to="n30-n42"/>
<trip id="22" depart="57" from="n44-n32" to="n51-n27"/>
<trip id="23" depart="58" from="n38-n53" to="n54-n19"/>
<trip id="24" depart="58" from="n40-n29" to="n32-n44"/>
<trip id="25" depart="60" from="n19-n54" to="n24-n36"/>
<trip id="26" depart="60" from="n43-n57" to="n5-n23"/>
<trip id="27" depart="66" from="n27-n51" to="n26-n37"/>
<trip id="28" depart="67" from="n27-n51" to="n53-n38"/>
<trip id="29" depart="71" from="n37-n26" to="n51-n27"/>
<trip id="30" depart="71" from="n43-n57" to="n5-n23"/>
<trip id="31" depart="72" from="n43-n57" to="n2-n18"/>
<trip id="32" depart="74" from="n38-n53" to="n54-n19"/>
<trip id="33" depart="78" from="n40-n29" to="n54-n19"/>
<trip id="34" depart="80" from="n27-n51" to="n53-n38"/>
<trip id="35" depart="82" from="n37-n26" to="n2-n18"/>
<trip id="36" depart="84" from="n19-n54" to="n22-n34"/>
<trip id="37" depart="85" from="n43-n57" to="n54-n19"/>
<trip id="38" depart="88" from="n43-n57" to="n4-n20"/>
<trip id="39" depart="94" from="n27-n51" to="n22-n35"/>
<trip id="40" depart="94" from="n36-n24" to="n51-n27"/>
<trip id="41" depart="99" from="n43-n57" to="n54-n19"/>
<trip id="42" depart="101" from="n38-n53" to="n57-n43"/>
<trip id="43" depart="102" from="n43-n57" to="n54-n19"/>
<trip id="44" depart="102" from="n21-n1" to="n53-n38"/>
<trip id="45" depart="104" from="n17-n1" to="n53-n38"/>
<trip id="46" depart="104" from="n44-n32" to="n54-n19"/>
<trip id="47" depart="105" from="n45-n33" to="n54-n19"/>
<trip id="48" depart="105" from="n43-n57" to="n53-n38"/>
<trip id="49" depart="107" from="n39-n33" to="n54-n19"/>
<trip id="50" depart="109" from="n42-n30" to="n22-n34"/>
<trip id="51" depart="110" from="n19-n54" to="n57-n43"/>
<trip id="52" depart="112" from="n18-n2" to="n22-n34"/>
<trip id="53" depart="112" from="n44-n32" to="n4-n20"/>
<trip id="54" depart="119" from="n19-n54" to="n33-n39"/>
<trip id="55" depart="119" from="n25-n9" to="n54-n19"/>
<trip id="56" depart="119" from="n38-n53" to="n1-n17"/>
<trip id="57" depart="119" from="n25-n9" to="n33-n39"/>
<trip id="58" depart="122" from="n19-n54" to="n53-n38"/>
<trip id="59" depart="123" from="n44-n32" to="n57-n43"/>
<trip id="60" depart="123" from="n19-n54" to="n2-n18"/>
<trip id="61" depart="125" from="n43-n57" to="n51-n27"/>
<trip id="62" depart="128" from="n18-n2" to="n54-n19"/>
<trip id="63" depart="129" from="n27-n51" to="n29-n41"/>
<trip id="64" depart="129" from="n38-n53" to="n51-n27"/>
<trip id="65" depart="133" from="n38-n53" to="n54-n19"/>
<trip id="66" depart="135" from="n38-n53" to="n1-n21"/>
<trip id="67" depart="135" from="n19-n54" to="n33-n45"/>
<trip id="68" depart="135" from="n27-n51" to="n9-n25"/>
<trip id="69" depart="136" from="n27-n51" to="n54-n19"/>
<trip id="70" depart="140" from="n19-n54" to="n29-n41"/>
<trip id="71" depart="142" from="n41-n29" to="n22-n35"/>
<trip id="72" depart="145" from="n41-n29" to="n9-n25"/>
<trip id="73" depart="150" from="n43-n57" to="n29-n40"/>
<trip id="74" depart="153" from="n44-n32" to="n22-n35"/>
<trip id="75" depart="156" from="n19-n54" to="n33-n39"/>
<trip id="76" depart="158" from="n43-n57" to="n26-n37"/>
<trip id="77" depart="159" from="n44-n32" to="n57-n43"/>
<trip id="78" depart="164" from="n20-n4" to="n51-n27"/>
<trip id="79" depart="168" from="n38-n53" to="n2-n18"/>
<trip id="80" depart="170" from="n38-n53" to="n33-n39"/>
<trip id="81" depart="173" from="n19-n54" to="n29-n40"/>
<trip id="82" depart="175" from="n43-n57" to="n1-n21"/>
<trip id="83" depart="175" from="n34-n22" to="n53-n38"/>
<trip id="84" depart="176" from="n43-n57" to="n2-n18"/>
<trip id="85" depart="177" from="n39-n33" to="n57-n43"/>
<trip id="86" depart="181" from="n23-n5" to="n51-n27"/>
<trip id="87" depart="183" from="n38-n53" to="n51-n27"/>
<trip id="88" depart="188" from="n44-n32" to="n57-n43"/>
<trip id="89" depart="191" from="n40-n29" to="n57-n43"/>
<trip id="90" depart="191" from="n43-n57" to="n22-n35"/>
<trip id="91" depart="193" from="n38-n53" to="n33-n45"/>
<trip id="92" depart="194" from="n19-n54" to="n1-n21"/>
<trip id="93" depart="195" from="n18-n2" to="n53-n38"/>
<trip id="94" depart="196" from="n19-n54" to="n29-n40"/>
<trip id="95" depart="198" from="n21-n1" to="n1-n17"/>
<trip id="96" depart="201" from="n23-n5" to="n51-n27"/>
<trip id="97" depart="203" from="n21-n1" to="n57-n43"/>
<trip id="98" depart="203" from="n43-n57" to="n30-n42"/>
<trip id="99" depart="205" from="n39-n33" to="n32-n44"/>
<trip id="100" depart="206" from="n40-n29" to="n1-n17"/>
<trip id="101" depart="210" from="n44-n32" to="n26-n37"/>
<trip id="102" depart="211" from="n27-n51" to="n33-n45"/>
<trip id="103" depart="213" from="n43-n57" to="n2-n18"/>
<trip id="104" depart="214" from="n19-n54" to="n57-n43"/>
<trip id="105" depart="216" from="n19-n54" to="n33-n39"/>
<trip id="106" depart="216" from="n43-n57" to="n51-n27"/>
<trip id="107" depart="216" from="n25-n9" to="n51-n27"/>
<trip id="108" depart="218" from="n43-n57" to="n54-n19"/>
<trip id="109" depart="219" from="n27-n51" to="n57-n43"/>
<trip id="110" depart="220" from="n34-n22" to="n57-n43"/>
<trip id="111" depart="220" from="n17-n1" to="n57-n43"/>
<trip id="112" depart="222" from="n21-n1" to="n22-n35"/>
<trip id="113" depart="222" from="n27-n51" to="n30-n42"/>
<trip id="114" depart="225" from="n27-n51" to="n9-n25"/>
<trip id="115" depart="227" from="n38-n53" to="n29-n41"/>
<trip id="116" depart="227" from="n27-n51" to="n9-n25"/>
<trip id="117" depart="231" from="n27-n51" to="n24-n36"/>
<trip id="118" depart="237" from="n27-n51" to="n53-n38"/>
<trip id="119" depart="239" from="n17-n1" to="n53-n38"/>
<trip id="120" depart="248" from="n19-n54" to="n53-n38"/>
<trip id="121" depart="249" from="n40-n29" to="n53-n38"/>
<trip id="122" depart="254" from="n27-n51" to="n32-n44"/>
<trip id="123" depart="255" from="n44-n32" to="n26-n37"/>
<trip id="124" depart="258" from="n36-n24" to="n54-n19"/>
<trip id="125" depart="259" from="n43-n57" to="n53-n38"/>
<trip id="126" depart="261" from="n43-n57" to="n30-n42"/>
<trip id="127" depart="262" from="n43-n57" to="n51-n27"/>
<trip id="128" depart="262" from="n19-n54" to="n57-n43"/>
<trip id="129" depart="262" from="n27-n51" to="n9-n25"/>
<trip id="130" depart="263" from="n40-n29" to="n1-n21"/>
<trip id="131" depart="264" from="n44-n32" to="n54-n19"/>
<trip id="132" depart="264" from="n40-n29" to="n57-n43"/>
<trip id="133" depart="266" from="n38-n53" to="n4-n20"/>
<trip id="134" depart="269" from="n18-n2" to="n51-n27"/>
<trip id="135" depart="269" from="n43-n57" to="n54-n19"/>
<trip id="136" depart="270" from="n38-n53" to="n51-n27"/>
<trip id="137" depart="275" from="n43-n57" to="n51-n27"/>
<trip id="138" depart="277" from="n41-n29" to="n22-n34"/>
<trip id="139" depart="281" from="n43-n57" to="n30-n42"/>
<trip id="140" depart="282" from="n45-n33" to="n54-n19"/>
<trip id="141" depart="283" from="n23-n5" to="n33-n39"/>
<trip id="142" depart="287" from="n21-n1" to="n53-n38"/>
<trip id="143" depart="294" from="n27-n51" to="n53-n38"/>
<trip id="144" depart="296" from="n25-n9" to="n5-n23"/>
<trip id="145" depart="296" from="n40-n29" to="n53-n38"/>
<trip id="146" depart="299" from="n43-n57" to="n51-n27"/>
<trip id="147" depart="300" from="n42-n30" to="n54-n19"/>
<trip id="148" depart="301" from="n38-n53" to="n9-n25"/>
<trip id="149" depart="301" from="n18-n2" to="n51-n27"/>
<trip id="150" depart="306" from="n38-n53" to="n57-n43"/>
<trip id="151" depart="308" from="n27-n51" to="n5-n23"/>
<trip id="152" depart="308" from="n39-n33" to="n9-n25"/>
<trip id="153" depart="309" from="n35-n22" to="n54-n19"/>
<trip id="154" depart="310" from="n19-n54" to="n24-n36"/>
<trip id="155" depart="310" from="n17-n1" to="n57-n43"/>
<trip id="156" depart="310" from="n39-n33" to="n26-n37"/>
<trip id="157" depart="311" from="n27-n51" to="n54-n19"/>
<trip id="158" depart="313" from="n39-n33" to="n57-n43"/>
<trip id="159" depart="323" from="n19-n54" to="n51-n27"/>
<trip id="160" depart="323" from="n36-n24" to="n22-n35"/>
<trip id="161" depart="324" from="n27-n51" to="n54-n19"/>
<trip id="162" depart="331" from="n25-n9" to="n54-n19"/>
<trip id="163" depart="338" from="n34-n22" to="n5-n23"/>
<trip id="164" depart="339" from="n19-n54" to="n22-n34"/>
<trip id="165" depart="340" from="n43-n57" to="n26-n37"/>
<trip id="166" depart="342" from="n43-n57" to="n51-n27"/>
<trip id="167" depart="343" from="n21-n1" to="n22-n35"/>
<trip id="168" depart="343" from="n27-n51" to="n9-n25"/>
<trip id="169" depart="346" from="n38-n53" to="n57-n43"/>
<trip id="170" depart="348" from="n20-n4" to="n29-n41"/>
<trip id="171" depart="348" from="n42-n30" to="n54-n19"/>
<trip id="172" depart="349" from="n19-n54" to="n51-n27"/>
<trip id="173" depart="349" from="n38-n53" to="n54-n19"/>
<trip id="174" depart="359" from="n19-n54" to="n53-n38"/>
<trip id="175" depart="360" from="n19-n54" to="n26-n37"/>
<trip id="176" depart="363" from="n36-n24" to="n1-n21"/>
<trip id="177" depart="363" from="n19-n54" to="n33-n45"/>
<trip id="178" depart="364" from="n20-n4" to="n26-n37"/>
<trip id="179" depart="365" from="n19-n54" to="n51-n27"/>
<trip id="180" depart="366" from="n18-n2" to="n54-n19"/>
<trip id="181" depart="369" from="n27-n51" to="n4-n20"/>
<trip id="182" depart="370" from="n41-n29" to="n33-n39"/>
<trip id="183" depart="370" from="n37-n26" to="n51-n27"/>
<trip id="184" depart="370" from="n43-n57" to="n53-n38"/>
<trip id="185" depart="372" from="n36-n24" to="n2-n18"/>
<trip id="186" depart="373" from="n19-n54" to="n57-n43"/>
<trip id="187" depart="382" from="n19-n54" to="n51-n27"/>
<trip id="188" depart="383" from="n38-n53" to="n57-n43"/>
<trip id="189" depart="384" from="n19-n54" to="n57-n43"/>
<trip id="190" depart="384" from="n42-n30" to="n54-n19"/>
<trip id="191" depart="390" from="n38-n53" to="n29-n41"/>
<trip id="192" depart="392" from="n43-n57" to="n30-n42"/>
<trip id="193" depart="393" from="n39-n33" to="n2-n18"/>
<trip id="194" depart="395" from="n36-n24" to="n1-n21"/>
<trip id="195" depart="397" from="n44-n32" to="n22-n34"/>
<trip id="196" depart="397" from="n19-n54" to="n1-n17"/>
<trip id="197" depart="402" from="n43-n57" to="n29-n41"/>
<trip id="198" depart="403" from="n25-n9" to="n29-n40"/>
<trip id="199" depart="404" from="n36-n24" to="n29-n41"/>
<trip id="200" depart="404" from="n38-n53" to="n51-n27"/>
<trip id="201" depart="405" from="n35-n22" to="n51-n27"/>
<trip id="202" depart="408" from="n27-n51" to="n5-n23"/>
<trip id="203" depart="408" from="n36-n24" to="n51-n27"/>
<trip id="204" depart="410" from="n41-n29" to="n24-n36"/>
<trip id="205" depart="411" from="n42-n30" to="n5-n23"/>
<trip id="206" depart="416" from="n38-n53" to="n51-n27"/>
<trip id="207" depart="417" from="n43-n57" to="n22-n34"/>
<trip id="208" depart="419" from="n38-n53" to="n54-n19"/>
<trip id="209" depart="419" from="n38-n53" to="n57-n43"/>
<trip id="210" depart="420" from="n23-n5" to="n54-n19"/>
<trip id="211" depart="421" from="n44-n32" to="n54-n19"/>
<trip id="212" depart="421" from="n25-n9" to="n54-n19"/>
<trip id="213" depart="422" from="n38-n53" to="n33-n45"/>
<trip id="214" depart="426" from="n19-n54" to="n53-n38"/>
<trip id="215" depart="426" from="n17-n1" to="n22-n35"/>
<trip id="216" depart="427" from="n44-n32" to="n53-n38"/>
<trip id="217" depart="430" from="n19-n54" to="n57-n43"/>
<trip id="218" depart="431" from="n40-n29" to="n1-n17"/>
<trip id="219" depart="431" from="n43-n57" to="n1-n21"/>
<trip id="220" depart="432" from="n27-n51" to="n22-n35"/>
<trip id="221" depart="434" from="n27-n51" to="n2-n18"/>
<trip id="222" depart="435" from="n38-n53" to="n57-n43"/>
<trip id="223" depart="438" from="n38-n53" to="n51-n27"/>
<trip id="224" depart="439" from="n38-n53" to="n54-n19"/>
<trip id="225" depart="441" from="n18-n2" to="n57-n43"/>
<trip id="226" depart="441" from="n41-n29" to="n57-n43"/>
<trip id="227" depart="448" from="n36-n24" to="n54-n19"/>
<trip id="228" depart="448" from="n43-n57" to="n29-n41"/>
<trip id="229" depart="449" from="n35-n22" to="n22-n34"/>
<trip id="230" depart="452" from="n43-n57" to="n1-n17"/>
<trip id="231" depart="452" from="n23-n5" to="n53-n38"/>
<trip id="232" depart="453" from="n21-n1" to="n5-n23"/>
<trip id="233" depart="456" from="n41-n29" to="n51-n27"/>
<trip id="234" depart="456" from="n39-n33" to="n9-n25"/>
<trip id="235" depart="457" from="n43-n57" to="n54-n19"/>
<trip id="236" depart="465" from="n41-n29" to="n57-n43"/>
<trip id="237" depart="472" from="n43-n57" to="n51-n27"/>
<trip id="238" depart="473" from="n35-n22" to="n29-n41"/>
<trip id="239" depart="478" from="n27-n51" to="n57-n43"/>
<trip id="240" depart="479" from="n27-n51" to="n26-n37"/>
<trip id="241" depart="483" from="n27-n51" to="n33-n45"/>
<trip id="242" depart="484" from="n17-n1" to="n57-n43"/>
<trip id="243" depart="485" from="n41-n29" to="n24-n36"/>
<trip id="244" depart="486" from="n38-n53" to="n9-n25"/>
<trip id="245" depart="487" from="n44-n32" to="n53-n38"/>
<trip id="246" depart="487" from="n19-n54" to="n30-n42"/>
<trip id="247" depart="498" from="n43-n57" to="n51-n27"/>
<trip id="248" depart="501" from="n38-n53" to="n26-n37"/>
<trip id="249" depart="501" from="n41-n29" to="n54-n19"/>
<trip id="250" depart="502" from="n36-n24" to="n30-n42"/>
<trip id="251" depart="502" from="n34-n22" to="n54-n19"/>
<trip id="252" depart="502" from="n17-n1" to="n57-n43"/>
<trip id="253" depart="506" from="n27-n51" to="n54-n19"/>
<trip id="254" depart="507" from="n44-n32" to="n33-n39"/>
<trip id="255" depart="508" from="n43-n57" to="n29-n40"/>
<trip id="256" depart="513" from="n25-n9" to="n51-n27"/>
<trip id="257" depart="514" from="n43-n57" to="n51-n27"/>
<trip id="258" depart="515" from="n27-n51" to="n29-n40"/>
<trip id="259" depart="519" from="n23-n5" to="n54-n19"/>
<trip id="260" depart="521" from="n19-n54" to="n22-n34"/>
<trip id="261" depart="525" from="n41-n29" to="n5-n23"/>
<trip id="262" depart="529" from="n43-n57" to="n29-n41"/>
<trip id="263" depart="530" from="n43-n57" to="n53-n38"/>
<trip id="264" depart="531" from="n27-n51" to="n54-n19"/>
<trip id="265" depart="532" from="n43-n57" to="n51-n27"/>
<trip id="266" depart="537" from="n34-n22" to="n53-n38"/>
<trip id="267" depart="538" from="n18-n2" to="n30-n42"/>
<trip id="268" depart="540" from="n35-n22" to="n22-n34"/>
<trip id="269" depart="541" from="n39-n33" to="n53-n38"/>
<trip id="270" depart="543" from="n19-n54" to="n57-n43"/>
<trip id="271" depart="544" from="n19-n54" to="n9-n25"/>
<trip id="272" depart="547" from="n43-n57" to="n22-n35"/>
<trip id="273" depart="548" from="n18-n2" to="n57-n43"/>
<trip id="274" depart="549" from="n39-n33" to="n22-n34"/>
<trip id="275" depart="552" from="n38-n53" to="n29-n40"/>
<trip id="276" depart="554" from="n43-n57" to="n22-n35"/>
<trip id="277" depart="555" from="n25-n9" to="n33-n39"/>
<trip id="278" depart="555" from="n18-n2" to="n30-n42"/>
<trip id="279" depart="556" from="n39-n33" to="n51-n27"/>
<trip id="280" depart="557" from="n36-n24" to="n54-n19"/>
<trip id="281" depart="560" from="n27-n51" to="n32-n44"/>
<trip id="282" depart="561" from="n38-n53" to="n4-n20"/>
<trip id="283" depart="561" from="n17-n1" to="n57-n43"/>
<trip id="284" depart="567" from="n38-n53" to="n2-n18"/>
<trip id="285" depart="568" from="n38-n53" to="n26-n37"/>
<trip id="286" depart="570" from="n36-n24" to="n54-n19"/>
<trip id="287" depart="570" from="n18-n2" to="n57-n43"/>
<trip id="288" depart="571" from="n38-n53" to="n54-n19"/>
<trip id="289" depart="572" from="n19-n54" to="n57-n43"/>
<trip id="290" depart="573" from="n43-n57" to="n53-n38"/>
<trip id="291" depart="573" from="n43-n57" to="n29-n41"/>
<trip id="292" depart="577" from="n36-n24" to="n29-n41"/>
<trip id="293" depart="578" from="n38-n53" to="n57-n43"/>
<trip id="294" depart="578" from="n23-n5" to="n24-n36"/>
<trip id="295" depart="580" from="n44-n32" to="n57-n43"/>
<trip id="296" depart="581" from="n18-n2" to="n53-n38"/>
<trip id="297" depart="585" from="n43-n57" to="n24-n36"/>
<trip id="298" depart="586" from="n27-n51" to="n29-n40"/>
<trip id="299" depart="587" from="n35-n22" to="n54-n19"/>
<trip id="300" depart="589" from="n27-n51" to="n33-n45"/>
<trip id="301" depart="589" from="n25-n9" to="n53-n38"/>
<trip id="302" depart="591" from="n44-n32" to="n51-n27"/>
<trip id="303" depart="592" from="n44-n32" to="n57-n43"/>
<trip id="304" depart="592" from="n18-n2" to="n24-n36"/>
<trip id="305" depart="593" from="n23-n5" to="n1-n17"/>
<trip id="306" depart="593" from="n35-n22" to="n54-n19"/>
<trip id="307" depart="594" from="n21-n1" to="n29-n40"/>
<trip id="308" depart="594" from="n21-n1" to="n53-n38"/>
<trip id="309" depart="600" from="n38-n53" to="n5-n23"/>
<trip id="310" depart="600" from="n19-n54" to="n57-n43"/>
<trip id="311" depart="601" from="n44-n32" to="n9-n25"/>
<trip id="312" depart="604" from="n36-n24" to="n2-n18"/>
<trip id="313" depart="609" from="n27-n51" to="n57-n43"/>
<trip id="314" depart="610" from="n25-n9" to="n1-n21"/>
<trip id="315" depart="615" from="n43-n57" to="n53-n38"/>
<trip id="316" depart="623" from="n42-n30" to="n32-n44"/>
<trip id="317" depart="625" from="n20-n4" to="n57-n43"/>
<trip id="318" depart="627" from="n35-n22" to="n54-n19"/>
<trip id="319" depart="628" from="n35-n22" to="n2-n18"/>
<trip id="320" depart="630" from="n27-n51" to="n24-n36"/>
<trip id="321" depart="634" from="n19-n54" to="n1-n17"/>
<trip id="322" depart="635" from="n19-n54" to="n51-n27"/>
<trip id="323" depart="635" from="n39-n33" to="n51-n27"/>
<trip id="324" depart="635" from="n20-n4" to="n22-n34"/>
<trip id="325" depart="643" from="n19-n54" to="n53-n38"/>
<trip id="326" depart="643" from="n19-n54" to="n53-n38"/>
<trip id="327" depart="644" from="n38-n53" to="n51-n27"/>
<trip id="328" depart="648" from="n17-n1" to="n24-n36"/>
<trip id="329" depart="649" from="n43-n57" to="n54-n19"/>
<trip id="330" depart="649" from="n19-n54" to="n57-n43"/>
<trip id="331" depart="651" from="n42-n30" to="n57-n43"/>
<trip id="332" depart="651" from="n34-n22" to="n4-n20"/>
<trip id="333" depart="655" from="n43-n57" to="n33-n39"/>
<trip id="334" depart="657" from="n20-n4" to="n51-n27"/>
<trip id="335" depart="659" from="n40-n29" to="n51-n27"/>
<trip id="336" depart="662" from="n19-n54" to="n2-n18"/>
<trip id="337" depart="668" from="n43-n57" to="n51-n27"/>
<trip id="338" depart="672" from="n19-n54" to="n30-n42"/>
<trip id="339" depart="673" from="n38-n53" to="n57-n43"/>
<trip id="340" depart="675" from="n23-n5" to="n2-n18"/>
<trip id="341" depart="676" from="n43-n57" to="n1-n21"/>
<trip id="342" depart="676" from="n42-n30" to="n53-n38"/>
<trip id="343" depart="680" from="n34-n22" to="n5-n23"/>
<trip id="344" depart="680" from="n38-n53" to="n57-n43"/>
<trip id="345" depart="685" from="n36-n24" to="n54-n19"/>
<trip id="346" depart="687" from="n19-n54" to="n53-n38"/>
<trip id="347" depart="688" from="n38-n53" to="n54-n19"/>
<trip id="348" depart="688" from="n41-n29" to="n54-n19"/>
<trip id="349" depart="692" from="n43-n57" to="n53-n38"/>
<trip id="350" depart="693" from="n45-n33" to="n54-n19"/>
<trip id="351" depart="693" from="n34-n22" to="n51-n27"/>
<trip id="352" depart="699" from="n43-n57" to="n22-n34"/>
<trip id="353" depart="701" from="n38-n53" to="n30-n42"/>
<trip id="354" depart="701" from="n42-n30" to="n1-n17"/>
<trip id="355" depart="701" from="n42-n30" to="n33-n45"/>
<trip id="356" depart="702" from="n27-n51" to="n26-n37"/>
<trip id="357" depart="703" from="n21-n1" to="n53-n38"/>
<trip id="358" depart="703" from="n36-n24" to="n1-n17"/>
<trip id="359" depart="705" from="n40-n29" to="n57-n43"/>
<trip id="360" depart="706" from="n19-n54" to="n22-n34"/>
<trip id="361" depart="706" from="n25-n9" to="n57-n43"/>
<trip id="362" depart="708" from="n44-n32" to="n54-n19"/>
<trip id="363" depart="709" from="n38-n53" to="n54-n19"/>
<trip id="364" depart="713" from="n42-n30" to="n51-n27"/>
<trip id="365" depart="713" from="n27-n51" to="n1-n21"/>
<trip id="366" depart="718" from="n38-n53" to="n22-n35"/>
<trip id="367" depart="718" from="n40-n29" to="n53-n38"/>
<trip id="368" depart="718" from="n34-n22" to="n1-n17"/>
<trip id="369" depart="721" from="n27-n51" to="n24-n36"/>
<trip id="370" depart="723" from="n43-n57" to="n22-n35"/>
<trip id="371" depart="724" from="n43-n57" to="n1-n17"/>
<trip id="372" depart="725" from="n38-n53" to="n57-n43"/>
<trip id="373" depart="725" from="n19-n54" to="n26-n37"/>
<trip id="374" depart="728" from="n36-n24" to="n54-n19"/>
<trip id="375" depart="731" from="n45-n33" to="n53-n38"/>
<trip id="376" depart="732" from="n27-n51" to="n57-n43"/>
<trip id="377" depart="733" from="n27-n51" to="n32-n44"/>
<trip id="378" depart="734" from="n42-n30" to="n1-n17"/>
<trip id="379" depart="734" from="n35-n22" to="n51-n27"/>
<trip id="380" depart="734" from="n39-n33" to="n51-n27"/>
<trip id="381" depart="735" from="n38-n53" to="n2-n18"/>
<trip id="382" depart="736" from="n38-n53" to="n57-n43"/>
<trip id="383" depart="737" from="n19-n54" to="n26-n37"/>
<trip id="384" depart="740" from="n19-n54" to="n57-n43"/>
<trip id="385" depart="742" from="n27-n51" to="n54-n19"/>
<trip id="386" depart="745" from="n38-n53" to="n33-n45"/>
<trip id="387" depart="748" from="n23-n5" to="n26-n37"/>
<trip id="388" depart="749" from="n34-n22" to="n57-n43"/>
<trip id="389" depart="751" from="n45-n33" to="n30-n42"/>
<trip id="390" depart="756" from="n17-n1" to="n33-n45"/>
<trip id="391" depart="757" from="n36-n24" to="n57-n43"/>
<trip id="392" depart="758" from="n21-n1" to="n53-n38"/>
<trip id="393" depart="759" from="n25-n9" to="n5-n23"/>
<trip id="394" depart="760" from="n44-n32" to="n22-n35"/>
<trip id="395" depart="760" from="n38-n53" to="n51-n27"/>
<trip id="396" depart="764" from="n27-n51" to="n33-n39"/>
<trip id="397" depart="764" from="n19-n54" to="n57-n43"/>
<trip id="398" depart="767" from="n35-n22" to="n57-n43"/>
<trip id="399" depart="767" from="n19-n54" to="n29-n41"/>
<trip id="400" depart="767" from="n41-n29" to="n51-n27"/>
<trip id="401" depart="767" from="n38-n53" to="n57-n43"/>
<trip id="402" depart="771" from="n27-n51" to="n9-n25"/>
<trip id="403" depart="778" from="n38-n53" to="n32-n44"/>
<trip id="404" depart="784" from="n43-n57" to="n2-n18"/>
<trip id="405" depart="785" from="n43-n57" to="n51-n27"/>
<trip id="406" depart="785" from="n38-n53" to="n30-n42"/>
<trip id="407" depart="796" from="n35-n22" to="n53-n38"/>
<trip id="408" depart="800" from="n42-n30" to="n57-n43"/>
<trip id="409" depart="800" from="n43-n57" to="n54-n19"/>
<trip id="410" depart="801" from="n38-n53" to="n54-n19"/>
<trip id="411" depart="805" from="n38-n53" to="n54-n19"/>
<trip id="412" depart="805" from="n39-n33" to="n33-n45"/>
<trip id="413" depart="806" from="n37-n26" to="n54-n19"/>
<trip id="414" depart="807" from="n43-n57" to="n1-n17"/>
<trip id="415" depart="807" from="n38-n53" to="n51-n27"/>
<trip id="416" depart="809" from="n27-n51" to="n4-n20"/>
<trip id="417" depart="811" from="n43-n57" to="n51-n27"/>
<trip id="418" depart="813" from="n37-n26" to="n51-n27"/>
<trip id="419" depart="813" from="n27-n51" to="n9-n25"/>
<trip id="420" depart="819" from="n23-n5" to="n24-n36"/>
<trip id="421" depart="824" from="n38-n53" to="n54-n19"/>
<trip id="422" depart="827" from="n21-n1" to="n9-n25"/>
<trip id="423" depart="828" from="n18-n2" to="n33-n39"/>
<trip id="424" depart="834" from="n43-n57" to="n33-n45"/>
<trip id="425" depart="835" from="n34-n22" to="n26-n37"/>
<trip id="426" depart="837" from="n43-n57" to="n22-n35"/>
<trip id="427" depart="840" from="n19-n54" to="n2-n18"/>
<trip id="428" depart="842" from="n19-n54" to="n33-n39"/>
<trip id="429" depart="843" from="n39-n33" to="n57-n43"/>
<trip id="430" depart="844" from="n38-n53" to="n54-n19"/>
<trip id="431" depart="848" from="n45-n33" to="n57-n43"/>
<trip id="432" depart="849" from="n27-n51" to="n2-n18"/>
<trip id="433" depart="849" from="n21-n1" to="n54-n19"/>
<trip id="434" depart="851" from="n18-n2" to="n33-n45"/>
<trip id="435" depart="851" from="n21-n1" to="n51-n27"/>
<trip id="436" depart="851" from="n43-n57" to="n24-n36"/>
<trip id="437" depart="852" from="n37-n26" to="n51-n27"/>
<trip id="438" depart="855" from="n43-n57" to="n4-n20"/>
<trip id="439" depart="857" from="n34-n22" to="n57-n43"/>
<trip id="440" depart="857" from="n43-n57" to="n26-n37"/>
<trip id="441" depart="859" from="n40-n29" to="n4-n20"/>
<trip id="442" depart="862" from="n21-n1" to="n57-n43"/>
<trip id="443" depart="862" from="n19-n54" to="n53-n38"/>
<trip id="444" depart="863" from="n19-n54" to="n51-n27"/>
<trip id="445" depart="867" from="n17-n1" to="n51-n27"/>
<trip id="446" depart="868" from="n19-n54" to="n53-n38"/>
<trip id="447" depart="877" from="n36-n24" to="n9-n25"/>
<trip id="448" depart="883" from="n37-n26" to="n53-n38"/>
<trip id="449" depart="883" from="n45-n33" to="n24-n36"/>
<trip id="450" depart="884" from="n36-n24" to="n26-n37"/>
<trip id="451" depart="890" from="n27-n51" to="n54-n19"/>
<trip id="452" depart="893" from="n17-n1" to="n24-n36"/>
<trip id="453" depart="896" from="n17-n1" to="n57-n43"/>
<trip id="454" depart="899" from="n43-n57" to="n53-n38"/>
<trip id="455" depart="901" from="n27-n51" to="n53-n38"/>
<trip id="456" depart="903" from="n44-n32" to="n54-n19"/>
<trip id="457" depart="904" from="n19-n54" to="n57-n43"/>
<trip id="458" depart="906" from="n43-n57" to="n54-n19"/>
<trip id="459" depart="906" from="n44-n32" to="n30-n42"/>
<trip id="460" depart="910" from="n35-n22" to="n33-n45"/>
<trip id="461" depart="912" from="n38-n53" to="n22-n35"/>
<trip id="462" depart="912" from="n25-n9" to="n53-n38"/>
<trip id="463" depart="913" from="n37-n26" to="n57-n43"/>
<trip id="464" depart="914" from="n43-n57" to="n54-n19"/>
<trip id="465" depart="914" from="n23-n5" to="n51-n27"/>
<trip id="466" depart="914" from="n18-n2" to="n9-n25"/>
<trip id="467" depart="917" from="n19-n54" to="n5-n23"/>
<trip id="468" depart="921" from="n34-n22" to="n33-n45"/>
<trip id="469" depart="924" from="n38-n53" to="n32-n44"/>
<trip id="470" depart="925" from="n44-n32" to="n1-n17"/>
<trip id="471" depart="928" from="n18-n2" to="n30-n42"/>
<trip id="472" depart="930" from="n37-n26" to="n5-n23"/>
<trip id="473" depart="930" from="n19-n54" to="n57-n43"/>
<trip id="474" depart="932" from="n43-n57" to="n54-n19"/>
<trip id="475" depart="937" from="n19-n54" to="n32-n44"/>
<trip id="476" depart="941" from="n20-n4" to="n5-n23"/>
<trip id="477" depart="944" from="n40-n29" to="n53-n38"/>
<trip id="478" depart="946" from="n27-n51" to="n33-n39"/>
<trip id="479" depart="946" from="n18-n2" to="n9-n25"/>
<trip id="480" depart="946" from="n20-n4" to="n57-n43"/>
<trip id="481" depart="946" from="n37-n26" to="n1-n17"/>
<trip id="482" depart="947" from="n38-n53" to="n54-n19"/>
<trip id="483" depart="950" from="n19-n54" to="n57-n43"/>
<trip id="484" depart="950" from="n38-n53" to="n30-n42"/>
<trip id="485" depart="953" from="n38-n53" to="n2-n18"/>
<trip id="486" depart="954" from="n38-n53" to="n57-n43"/>
<trip id="487" depart="955" from="n21-n1" to="n53-n38"/>
<trip id="488" depart="958" from="n36-n24" to="n32-n44"/>
<trip id="489" depart="963" from="n27-n51" to="n22-n34"/>
<trip id="490" depart="964" from="n19-n54" to="n53-n38"/>
<trip id="491" depart="967" from="n38-n53" to="n57-n43"/>
<trip id="492" depart="973" from="n19-n54" to="n4-n20"/>
<trip id="493" depart="974" from="n45-n33" to="n53-n38"/>
<trip id="494" depart="975" from="n43-n57" to="n1-n17"/>
<trip id="495" depart="976" from="n41-n29" to="n30-n42"/>
<trip id="496" depart="976" from="n43-n57" to="n32-n44"/>
<trip id="497" depart="979" from="n25-n9" to="n5-n23"/>
<trip id="498" depart="980" from="n39-n33" to="n1-n21"/>
<trip id="499" depart="980" from="n45-n33" to="n53-n38"/>
<trip id="500" depart="983" from="n34-n22" to="n30-n42"/>
<trip id="501" depart="983" from="n25-n9" to="n57-n43"/>
<trip id="502" depart="993" from="n37-n26" to="n54-n19"/>
<trip id="503" depart="993" from="n34-n22" to="n57-n43"/>
<trip id="504" depart="994" from="n37-n26" to="n2-n18"/>
<trip id="505" depart="994" from="n23-n5" to="n1-n21"/>
<trip id="506" depart="998" from="n37-n26" to="n53-n38"/>
<trip id="507" depart="998" from="n42-n30" to="n57-n43"/>
<trip id="508" depart="1006" from="n23-n5" to="n51-n27"/>
<trip id="509" depart="1006" from="n36-n24" to="n29-n40"/>
<trip id="510" depart="1010" from="n35-n22" to="n2-n18"/>
<trip id="511" depart="1012" from="n20-n4" to="n26-n37"/>
<trip id="512" depart="1013" from="n19-n54" to="n29-n40"/>
<trip id="513" depart="1014" from="n43-n57" to="n5-n23"/>
<trip id="514" depart="1020" from="n43-n57" to="n33-n39"/>
<trip id="515" depart="1022" from="n43-n57" to="n54-n19"/>
<trip id="516" depart="1023" from="n43-n57" to="n54-n19"/>
<trip id="517" depart="1025" from="n43-n57" to="n51-n27"/>
<trip id="518" depart="1025" from="n39-n33" to="n57-n43"/>
<trip id="519" depart="1028" from="n45-n33" to="n57-n43"/>