<routes>
    <vType accel="1.0" decel="5.0" id="Car" jmIgnoreKeepClearTime="100.0" maxSpeed="30" length="3" />
        
    <!--emergencyDecel="0.0"-->
    <trip id="0" depart="1" from="n43-n57" to="n54-n19"/>
<trip id="1" depart="2" from="n27-n51" to="n30-n42"/>
<trip id="2" depart="2" from="n34-n22" to="n26-n37"/>
<trip id="3" depart="4" from="n41-n29" to="n51-n27"/>
<trip id="4" depart="6" from="n19-n54" to="n57-n43"/>
<trip id="5" depart="12" from="n36-n24" to="n53-n38"/>
<trip id="6" depart="15" from="n43-n57" to="n30-n42"/>
<trip id="7" depart="18" from="n38-n53" to="n9-n25"/>
<trip id="8" depart="19" from="n36-n24" to="n33-n45"/>
<trip id="9" depart="29" from="n21-n1" to="n29-n40"/>
<trip id="10" depart="29" from="n23-n5" to="n30-n42"/>
<trip id="11" depart="32" from="n38-n53" to="n29-n40"/>
<trip id="12" depart="32" from="n19-n54" to="n33-n39"/>
<trip id="13" depart="35" from="n19-n54" to="n24-n36"/>
<trip id="14" depart="36" from="n43-n57" to="n51-n27"/>
<trip id="15" depart="36" from="n38-n53" to="n51-n27"/>
<trip id="16" depart="38" from="n43-n57" to="n51-n27"/>
<trip id="17" depart="41" from="n21-n1" to="n57-n43"/>
<trip id="18" depart="42" from="n27-n51" to="n22-n34"/>
<trip id="19" depart="42" from="n19-n54" to="n53-n38"/>
<trip id="20" depart="45" from="n34-n22" to="n54-n19"/>
<trip id="21" depart="47" from="n45-n33" to="n1-n17"/>
<trip id="22" depart="48" from="n38-n53" to="n51-n27"/>
<trip id="23" depart="52" from="n27-n51" to="n54-n19"/>
<trip id="24" depart="53" from="n43-n57" to="n54-n19"/>
<trip id="25" depart="55" from="n35-n22" to="n54-n19"/>
<trip id="26" depart="56" from="n27-n51" to="n22-n34"/>
<trip id="27" depart="59" from="n43-n57" to="n51-n27"/>
<trip id="28" depart="65" from="n45-n33" to="n54-n19"/>
<trip id="29" depart="66" from="n41-n29" to="n51-n27"/>
<trip id="30" depart="66" from="n38-n53" to="n57-n43"/>
<trip id="31" depart="66" from="n45-n33" to="n22-n35"/>
<trip id="32" depart="68" from="n43-n57" to="n33-n39"/>
<trip id="33" depart="68" from="n43-n57" to="n33-n39"/>
<trip id="34" depart="71" from="n43-n57" to="n51-n27"/>
<trip id="35" depart="76" from="n43-n57" to="n1-n21"/>
<trip id="36" depart="76" from="n40-n29" to="n30-n42"/>
<trip id="37" depart="81" from="n27-n51" to="n1-n21"/>
<trip id="38" depart="83" from="n43-n57" to="n32-n44"/>
<trip id="39" depart="84" from="n39-n33" to="n53-n38"/>
<trip id="40" depart="84" from="n21-n1" to="n29-n40"/>
<trip id="41" depart="84" from="n42-n30" to="n53-n38"/>
<trip id="42" depart="86" from="n38-n53" to="n54-n19"/>
<trip id="43" depart="86" from="n23-n5" to="n57-n43"/>
<trip id="44" depart="90" from="n45-n33" to="n4-n20"/>
<trip id="45" depart="91" from="n39-n33" to="n29-n40"/>
<trip id="46" depart="91" from="n42-n30" to="n57-n43"/>
<trip id="47" depart="96" from="n43-n57" to="n29-n41"/>
<trip id="48" depart="96" from="n34-n22" to="n24-n36"/>
<trip id="49" depart="98" from="n23-n5" to="n51-n27"/>
<trip id="50" depart="98" from="n27-n51" to="n30-n42"/>
<trip id="51" depart="100" from="n17-n1" to="n53-n38"/>
<trip id="52" depart="103" from="n19-n54" to="n9-n25"/>
<trip id="53" depart="105" from="n42-n30" to="n57-n43"/>
<trip id="54" depart="105" from="n42-n30" to="n1-n17"/>
<trip id="55" depart="106" from="n40-n29" to="n51-n27"/>
<trip id="56" depart="106" from="n17-n1" to="n54-n19"/>
<trip id="57" depart="110" from="n36-n24" to="n53-n38"/>
<trip id="58" depart="110" from="n43-n57" to="n22-n35"/>
<trip id="59" depart="117" from="n38-n53" to="n29-n40"/>
<trip id="60" depart="120" from="n19-n54" to="n26-n37"/>
<trip id="61" depart="121" from="n19-n54" to="n22-n34"/>
<trip id="62" depart="122" from="n35-n22" to="n9-n25"/>
<trip id="63" depart="124" from="n43-n57" to="n29-n40"/>
<trip id="64" depart="127" from="n17-n1" to="n1-n21"/>
<trip id="65" depart="129" from="n43-n57" to="n9-n25"/>
<trip id="66" depart="131" from="n45-n33" to="n1-n17"/>
<trip id="67" depart="131" from="n35-n22" to="n4-n20"/>
<trip id="68" depart="132" from="n19-n54" to="n4-n20"/>
<trip id="69" depart="135" from="n25-n9" to="n30-n42"/>
<trip id="70" depart="135" from="n19-n54" to="n29-n40"/>
<trip id="71" depart="140" from="n38-n53" to="n30-n42"/>
<trip id="72" depart="141" from="n44-n32" to="n53-n38"/>
<trip id="73" depart="143" from="n38-n53" to="n54-n19"/>
<trip id="74" depart="143" from="n21-n1" to="n53-n38"/>
<trip id="75" depart="144" from="n41-n29" to="n54-n19"/>
<trip id="76" depart="144" from="n39-n33" to="n1-n17"/>
<trip id="77" depart="145" from="n45-n33" to="n54-n19"/>
<trip id="78" depart="147" from="n21-n1" to="n51-n27"/>
<trip id="79" depart="147" from="n38-n53" to="n54-n19"/>
<trip id="80" depart="149" from="n38-n53" to="n54-n19"/>
<trip id="81" depart="151" from="n40-n29" to="n53-n38"/>
<trip id="82" depart="153" from="n27-n51" to="n53-n38"/>
<trip id="83" depart="155" from="n36-n24" to="n51-n27"/>
<trip id="84" depart="157" from="n43-n57" to="n29-n40"/>
<trip id="85" depart="158" from="n18-n2" to="n33-n39"/>
<trip id="86" depart="161" from="n38-n53" to="n22-n34"/>
<trip id="87" depart="168" from="n19-n54" to="n4-n20"/>
<trip id="88" depart="168" from="n35-n22" to="n29-n40"/>
<trip id="89" depart="172" from="n27-n51" to="n32-n44"/>
<trip id="90" depart="174" from="n27-n51" to="n22-n34"/>
<trip id="91" depart="175" from="n18-n2" to="n33-n39"/>
<trip id="92" depart="177" from="n41-n29" to="n53-n38"/>
<trip id="93" depart="177" from="n37-n26" to="n33-n45"/>
<trip id="94" depart="179" from="n19-n54" to="n24-n36"/>
<trip id="95" depart="179" from="n17-n1" to="n5-n23"/>
<trip id="96" depart="181" from="n43-n57" to="n33-n39"/>
<trip id="97" depart="182" from="n35-n22" to="n54-n19"/>
<trip id="98" depart="185" from="n38-n53" to="n1-n17"/>
<trip id="99" depart="185" from="n17-n1" to="n29-n40"/>
<trip id="100" depart="186" from="n19-n54" to="n33-n39"/>
<trip id="101" depart="186" from="n27-n51" to="n5-n23"/>
<trip id="102" depart="189" from="n38-n53" to="n54-n19"/>
<trip id="103" depart="190" from="n21-n1" to="n51-n27"/>
<trip id="104" depart="190" from="n18-n2" to="n5-n23"/>
<trip id="105" depart="191" from="n21-n1" to="n2-n18"/>
<trip id="106" depart="193" from="n34-n22" to="n1-n21"/>
<trip id="107" depart="193" from="n34-n22" to="n57-n43"/>
<trip id="108" depart="195" from="n19-n54" to="n22-n35"/>
<trip id="109" depart="196" from="n38-n53" to="n9-n25"/>
<trip id="110" depart="204" from="n21-n1" to="n57-n43"/>
<trip id="111" depart="205" from="n19-n54" to="n51-n27"/>
<trip id="112" depart="205" from="n45-n33" to="n22-n34"/>
<trip id="113" depart="209" from="n45-n33" to="n1-n17"/>
<trip id="114" depart="217" from="n23-n5" to="n9-n25"/>
<trip id="115" depart="218" from="n18-n2" to="n51-n27"/>
<trip id="116" depart="221" from="n38-n53" to="n30-n42"/>
<trip id="117" depart="224" from="n43-n57" to="n4-n20"/>
<trip id="118" depart="225" from="n23-n5" to="n57-n43"/>
<trip id="119" depart="229" from="n43-n57" to="n51-n27"/>
<trip id="120" depart="232" from="n41-n29" to="n57-n43"/>
<trip id="121" depart="233" from="n19-n54" to="n51-n27"/>
<trip id="122" depart="234" from="n34-n22" to="n9-n25"/>
<trip id="123" depart="234" from="n38-n53" to="n51-n27"/>
<trip id="124" depart="234" from="n38-n53" to="n22-n35"/>
<trip id="125" depart="236" from="n27-n51" to="n24-n36"/>
<trip id="126" depart="240" from="n42-n30" to="n54-n19"/>
<trip id="127" depart="243" from="n44-n32" to="n54-n19"/>
<trip id="128" depart="243" from="n19-n54" to="n51-n27"/>
<trip id="129" depart="245" from="n17-n1" to="n30-n42"/>
<trip id="130" depart="250" from="n20-n4" to="n57-n43"/>
<trip id="131" depart="250" from="n23-n5" to="n51-n27"/>
<trip id="132" depart="253" from="n27-n51" to="n1-n17"/>
<trip id="133" depart="255" from="n39-n33" to="n53-n38"/>
<trip id="134" depart="256" from="n38-n53" to="n29-n40"/>
<trip id="135" depart="260" from="n38-n53" to="n51-n27"/>
<trip id="136" depart="261" from="n43-n57" to="n54-n19"/>
<trip id="137" depart="263" from="n43-n57" to="n53-n38"/>
<trip id="138" depart="264" from="n37-n26" to="n51-n27"/>
<trip id="139" depart="264" from="n43-n57" to="n53-n38"/>
<trip id="140" depart="267" from="n19-n54" to="n53-n38"/>
<trip id="141" depart="269" from="n39-n33" to="n54-n19"/>
<trip id="142" depart="269" from="n41-n29" to="n51-n27"/>
<trip id="143" depart="273" from="n25-n9" to="n53-n38"/>
<trip id="144" depart="274" from="n37-n26" to="n54-n19"/>
<trip id="145" depart="275" from="n25-n9" to="n30-n42"/>
<trip id="146" depart="277" from="n27-n51" to="n53-n38"/>
<trip id="147" depart="282" from="n38-n53" to="n54-n19"/>
<trip id="148" depart="282" from="n19-n54" to="n5-n23"/>
<trip id="149" depart="282" from="n23-n5" to="n32-n44"/>
<trip id="150" depart="284" from="n19-n54" to="n29-n40"/>
<trip id="151" depart="284" from="n39-n33" to="n1-n17"/>
<trip id="152" depart="291" from="n45-n33" to="n53-n38"/>
<trip id="153" depart="293" from="n43-n57" to="n53-n38"/>
<trip id="154" depart="293" from="n42-n30" to="n51-n27"/>
<trip id="155" depart="296" from="n37-n26" to="n51-n27"/>
<trip id="156" depart="305" from="n23-n5" to="n51-n27"/>
<trip id="157" depart="306" from="n34-n22" to="n54-n19"/>
<trip id="158" depart="308" from="n27-n51" to="n54-n19"/>
<trip id="159" depart="316" from="n19-n54" to="n57-n43"/>
<trip id="160" depart="320" from="n17-n1" to="n57-n43"/>
<trip id="161" depart="325" from="n44-n32" to="n54-n19"/>
<trip id="162" depart="325" from="n19-n54" to="n29-n40"/>
<trip id="163" depart="328" from="n43-n57" to="n9-n25"/>
<trip id="164" depart="329" from="n43-n57" to="n30-n42"/>
<trip id="165" depart="329" from="n34-n22" to="n51-n27"/>
<trip id="166" depart="330" from="n43-n57" to="n2-n18"/>
<trip id="167" depart="331" from="n39-n33" to="n22-n35"/>
<trip id="168" depart="333" from="n35-n22" to="n9-n25"/>
<trip id="169" depart="334" from="n27-n51" to="n57-n43"/>
<trip id="170" depart="337" from="n27-n51" to="n1-n21"/>
<trip id="171" depart="340" from="n17-n1" to="n5-n23"/>
<trip id="172" depart="341" from="n37-n26" to="n51-n27"/>
<trip id="173" depart="345" from="n43-n57" to="n29-n40"/>
<trip id="174" depart="345" from="n44-n32" to="n9-n25"/>
<trip id="175" depart="346" from="n19-n54" to="n33-n45"/>
<trip id="176" depart="347" from="n44-n32" to="n54-n19"/>
<trip id="177" depart="348" from="n27-n51" to="n32-n44"/>
<trip id="178" depart="362" from="n36-n24" to="n53-n38"/>
<trip id="179" depart="363" from="n45-n33" to="n24-n36"/>
<trip id="180" depart="363" from="n43-n57" to="n51-n27"/>
<trip id="181" depart="363" from="n38-n53" to="n29-n40"/>
<trip id="182" depart="365" from="n20-n4" to="n51-n27"/>
<trip id="183" depart="368" from="n43-n57" to="n2-n18"/>
<trip id="184" depart="370" from="n39-n33" to="n30-n42"/>
<trip id="185" depart="372" from="n27-n51" to="n53-n38"/>
<trip id="186" depart="373" from="n44-n32" to="n51-n27"/>
<trip id="187" depart="374" from="n37-n26" to="n53-n38"/>
<trip id="188" depart="375" from="n37-n26" to="n9-n25"/>
<trip id="189" depart="375" from="n17-n1" to="n54-n19"/>
<trip id="190" depart="376" from="n39-n33" to="n53-n38"/>
<trip id="191" depart="376" from="n39-n33" to="n22-n35"/>
<trip id="192" depart="376" from="n23-n5" to="n54-n19"/>
<trip id="193" depart="377" from="n42-n30" to="n9-n25"/>
<trip id="194" depart="377" from="n27-n51" to="n54-n19"/>
<trip id="195" depart="377" from="n43-n57" to="n54-n19"/>
<trip id="196" depart="381" from="n43-n57" to="n22-n34"/>
<trip id="197" depart="382" from="n39-n33" to="n5-n23"/>
<trip id="198" depart="384" from="n19-n54" to="n57-n43"/>
<trip id="199" depart="385" from="n43-n57" to="n1-n21"/>
<trip id="200" depart="390" from="n43-n57" to="n54-n19"/>
<trip id="201" depart="391" from="n19-n54" to="n51-n27"/>
<trip id="202" depart="392" from="n19-n54" to="n51-n27"/>
<trip id="203" depart="393" from="n44-n32" to="n53-n38"/>
<trip id="204" depart="393" from="n43-n57" to="n5-n23"/>
<trip id="205" depart="393" from="n23-n5" to="n53-n38"/>
<trip id="206" depart="394" from="n27-n51" to="n29-n40"/>
<trip id="207" depart="395" from="n25-n9" to="n26-n37"/>
<trip id="208" depart="395" from="n18-n2" to="n9-n25"/>
<trip id="209" depart="398" from="n43-n57" to="n54-n19"/>
<trip id="210" depart="400" from="n37-n26" to="n57-n43"/>
<trip id="211" depart="401" from="n38-n53" to="n57-n43"/>
<trip id="212" depart="403" from="n35-n22" to="n54-n19"/>
<trip id="213" depart="404" from="n43-n57" to="n51-n27"/>
<trip id="214" depart="406" from="n38-n53" to="n54-n19"/>
<trip id="215" depart="410" from="n19-n54" to="n9-n25"/>
<trip id="216" depart="416" from="n43-n57" to="n54-n19"/>
<trip id="217" depart="419" from="n38-n53" to="n1-n17"/>
<trip id="218" depart="419" from="n44-n32" to="n9-n25"/>
<trip id="219" depart="424" from="n38-n53" to="n24-n36"/>
<trip id="220" depart="426" from="n38-n53" to="n51-n27"/>
<trip id="221" depart="427" from="n19-n54" to="n22-n34"/>
<trip id="222" depart="428" from="n35-n22" to="n53-n38"/>
<trip id="223" depart="429" from="n37-n26" to="n51-n27"/>
<trip id="224" depart="430" from="n38-n53" to="n32-n44"/>
<trip id="225" depart="432" from="n44-n32" to="n54-n19"/>
<trip id="226" depart="435" from="n43-n57" to="n53-n38"/>
<trip id="227" depart="435" from="n43-n57" to="n5-n23"/>
<trip id="228" depart="436" from="n36-n24" to="n53-n38"/>
<trip id="229" depart="436" from="n43-n57" to="n1-n21"/>
<trip id="230" depart="437" from="n19-n54" to="n53-n38"/>
<trip id="231" depart="437" from="n42-n30" to="n22-n34"/>
<trip id="232" depart="437" from="n39-n33" to="n57-n43"/>
<trip id="233" depart="438" from="n25-n9" to="n57-n43"/>
<trip id="234" depart="439" from="n21-n1" to="n57-n43"/>
<trip id="235" depart="440" from="n36-n24" to="n22-n35"/>
<trip id="236" depart="440" from="n34-n22" to="n26-n37"/>
<trip id="237" depart="441" from="n40-n29" to="n30-n42"/>
<trip id="238" depart="443" from="n37-n26" to="n53-n38"/>
<trip id="239" depart="444" from="n44-n32" to="n53-n38"/>
<trip id="240" depart="448" from="n35-n22" to="n54-n19"/>
<trip id="241" depart="450" from="n25-n9" to="n26-n37"/>
<trip id="242" depart="455" from="n40-n29" to="n9-n25"/>
<trip id="243" depart="456" from="n25-n9" to="n5-n23"/>
<trip id="244" depart="456" from="n21-n1" to="n53-n38"/>
<trip id="245" depart="457" from="n40-n29" to="n32-n44"/>
<trip id="246" depart="457" from="n38-n53" to="n1-n17"/>
<trip id="247" depart="459" from="n27-n51" to="n22-n35"/>
<trip id="248" depart="463" from="n19-n54" to="n30-n42"/>
<trip id="249" depart="467" from="n41-n29" to="n51-n27"/>
<trip id="250" depart="468" from="n34-n22" to="n53-n38"/>
<trip id="251" depart="468" from="n27-n51" to="n53-n38"/>
<trip id="252" depart="469" from="n43-n57" to="n54-n19"/>
<trip id="253" depart="470" from="n43-n57" to="n54-n19"/>
<trip id="254" depart="471" from="n43-n57" to="n5-n23"/>
<trip id="255" depart="472" from="n42-n30" to="n57-n43"/>
<trip id="256" depart="474" from="n18-n2" to="n51-n27"/>
<trip id="257" depart="475" from="n38-n53" to="n33-n45"/>
<trip id="258" depart="476" from="n38-n53" to="n54-n19"/>
<trip id="259" depart="478" from="n38-n53" to="n29-n41"/>
<trip id="260" depart="479" from="n43-n57" to="n33-n39"/>
<trip id="261" depart="481" from="n19-n54" to="n53-n38"/>
<trip id="262" depart="481" from="n43-n57" to="n33-n45"/>
<trip id="263" depart="481" from="n42-n30" to="n33-n45"/>
<trip id="264" depart="485" from="n43-n57" to="n26-n37"/>
<trip id="265" depart="486" from="n45-n33" to="n51-n27"/>
<trip id="266" depart="489" from="n43-n57" to="n22-n35"/>
<trip id="267" depart="492" from="n38-n53" to="n24-n36"/>
<trip id="268" depart="493" from="n19-n54" to="n29-n40"/>
<trip id="269" depart="494" from="n37-n26" to="n4-n20"/>
<trip id="270" depart="501" from="n34-n22" to="n57-n43"/>
<trip id="271" depart="502" from="n27-n51" to="n54-n19"/>
<trip id="272" depart="505" from="n34-n22" to="n32-n44"/>
<trip id="273" depart="507" from="n20-n4" to="n57-n43"/>
<trip id="274" depart="511" from="n25-n9" to="n4-n20"/>
<trip id="275" depart="511" from="n25-n9" to="n26-n37"/>
<trip id="276" depart="515" from="n18-n2" to="n26-n37"/>
<trip id="277" depart="516" from="n17-n1" to="n53-n38"/>
<trip id="278" depart="517" from="n19-n54" to="n33-n39"/>
<trip id="279" depart="523" from="n36-n24" to="n51-n27"/>
<trip id="280" depart="524" from="n39-n33" to="n53-n38"/>
<trip id="281" depart="526" from="n45-n33" to="n29-n41"/>
<trip id="282" depart="527" from="n27-n51" to="n33-n45"/>
<trip id="283" depart="531" from="n21-n1" to="n53-n38"/>
<trip id="284" depart="532" from="n43-n57" to="n2-n18"/>
<trip id="285" depart="536" from="n43-n57" to="n51-n27"/>
<trip id="286" depart="539" from="n19-n54" to="n29-n40"/>
<trip id="287" depart="542" from="n38-n53" to="n24-n36"/>
<trip id="288" depart="542" from="n19-n54" to="n57-n43"/>
<trip id="289" depart="542" from="n43-n57" to="n22-n34"/>
<trip id="290" depart="543" from="n45-n33" to="n57-n43"/>
<trip id="291" depart="545" from="n38-n53" to="n57-n43"/>
<trip id="292" depart="545" from="n42-n30" to="n51-n27"/>
<trip id="293" depart="546" from="n43-n57" to="n29-n41"/>
<trip id="294" depart="550" from="n18-n2" to="n29-n41"/>
<trip id="295" depart="550" from="n39-n33" to="n29-n40"/>
<trip id="296" depart="557" from="n38-n53" to="n51-n27"/>
<trip id="297" depart="557" from="n19-n54" to="n5-n23"/>
<trip id="298" depart="558" from="n40-n29" to="n32-n44"/>
<trip id="299" depart="565" from="n40-n29" to="n57-n43"/>
<trip id="300" depart="566" from="n38-n53" to="n24-n36"/>
<trip id="301" depart="567" from="n19-n54" to="n22-n34"/>
<trip id="302" depart="569" from="n27-n51" to="n53-n38"/>
<trip id="303" depart="572" from="n19-n54" to="n2-n18"/>
<trip id="304" depart="573" from="n43-n57" to="n1-n21"/>
<trip id="305" depart="576" from="n38-n53" to="n54-n19"/>
<trip id="306" depart="578" from="n23-n5" to="n57-n43"/>
<trip id="307" depart="580" from="n27-n51" to="n22-n35"/>
<trip id="308" depart="581" from="n43-n57" to="n1-n21"/>
<trip id="309" depart="583" from="n27-n51" to="n29-n41"/>
<trip id="310" depart="587" from="n45-n33" to="n54-n19"/>
<trip id="311" depart="588" from="n36-n24" to="n2-n18"/>
<trip id="312" depart="590" from="n18-n2" to="n53-n38"/>
<trip id="313" depart="590" from="n45-n33" to="n1-n17"/>
<trip id="314" depart="596" from="n25-n9" to="n57-n43"/>
<trip id="315" depart="602" from="n43-n57" to="n54-n19"/>
<trip id="316" depart="605" from="n19-n54" to="n57-n43"/>
<trip id="317" depart="614" from="n35-n22" to="n57-n43"/>
<trip id="318" depart="615" from="n38-n53" to="n54-n19"/>
<trip id="319" depart="616" from="n19-n54" to="n29-n40"/>
<trip id="320" depart="618" from="n19-n54" to="n53-n38"/>
<trip id="321" depart="619" from="n19-n54" to="n9-n25"/>
<trip id="322" depart="623" from="n19-n54" to="n30-n42"/>
<trip id="323" depart="628" from="n21-n1" to="n33-n45"/>
<trip id="324" depart="633" from="n38-n53" to="n51-n27"/>
<trip id="325" depart="633" from="n44-n32" to="n30-n42"/>
<trip id="326" depart="636" from="n39-n33" to="n4-n20"/>
<trip id="327" depart="638" from="n19-n54" to="n24-n36"/>
<trip id="328" depart="639" from="n37-n26" to="n22-n34"/>
<trip id="329" depart="641" from="n39-n33" to="n53-n38"/>
<trip id="330" depart="642" from="n19-n54" to="n26-n37"/>
<trip id="331" depart="648" from="n43-n57" to="n22-n35"/>
<trip id="332" depart="652" from="n45-n33" to="n57-n43"/>
<trip id="333" depart="652" from="n23-n5" to="n57-n43"/>
<trip id="334" depart="654" from="n27-n51" to="n22-n35"/>
<trip id="335" depart="662" from="n17-n1" to="n30-n42"/>
<trip id="336" depart="665" from="n41-n29" to="n54-n19"/>
<trip id="337" depart="665" from="n43-n57" to="n33-n45"/>
<trip id="338" depart="674" from="n21-n1" to="n22-n34"/>
<trip id="339" depart="675" from="n36-n24" to="n51-n27"/>
<trip id="340" depart="681" from="n41-n29" to="n32-n44"/>
<trip id="341" depart="685" from="n44-n32" to="n51-n27"/>
<trip id="342" depart="689" from="n35-n22" to="n54-n19"/>
<trip id="343" depart="697" from="n43-n57" to="n30-n42"/>
<trip id="344" depart="698" from="n18-n2" to="n1-n17"/>
<trip id="345" depart="698" from="n27-n51" to="n54-n19"/>
<trip id="346" depart="698" from="n20-n4" to="n9-n25"/>
<trip id="347" depart="698" from="n40-n29" to="n32-n44"/>
<trip id="348" depart="701" from="n19-n54" to="n1-n21"/>
<trip id="349" depart="702" from="n36-n24" to="n4-n20"/>
<trip id="350" depart="704" from="n19-n54" to="n29-n41"/>
<trip id="351" depart="705" from="n19-n54" to="n32-n44"/>
<trip id="352" depart="707" from="n43-n57" to="n51-n27"/>
<trip id="353" depart="707" from="n38-n53" to="n5-n23"/>
<trip id="354" depart="709" from="n34-n22" to="n54-n19"/>
<trip id="355" depart="714" from="n27-n51" to="n33-n45"/>
<trip id="356" depart="723" from="n43-n57" to="n4-n20"/>
<trip id="357" depart="725" from="n43-n57" to="n51-n27"/>
<trip id="358" depart="727" from="n19-n54" to="n57-n43"/>
<trip id="359" depart="729" from="n27-n51" to="n24-n36"/>
<trip id="360" depart="731" from="n38-n53" to="n57-n43"/>
<trip id="361" depart="731" from="n27-n51" to="n53-n38"/>
<trip id="362" depart="731" from="n39-n33" to="n4-n20"/>
<trip id="363" depart="736" from="n44-n32" to="n57-n43"/>
<trip id="364" depart="739" from="n20-n4" to="n57-n43"/>
<trip id="365" depart="742" from="n42-n30" to="n57-n43"/>
<trip id="366" depart="743" from="n36-n24" to="n54-n19"/>
<trip id="367" depart="745" from="n34-n22" to="n57-n43"/>
<trip id="368" depart="749" from="n43-n57" to="n54-n19"/>
<trip id="369" depart="750" from="n21-n1" to="n4-n20"/>
<trip id="370" depart="751" from="n43-n57" to="n1-n21"/>
<trip id="371" depart="753" from="n17-n1" to="n22-n34"/>
<trip id="372" depart="754" from="n27-n51" to="n54-n19"/>
<trip id="373" depart="756" from="n40-n29" to="n54-n19"/>
<trip id="374" depart="758" from="n35-n22" to="n2-n18"/>
<trip id="375" depart="761" from="n42-n30" to="n57-n43"/>
<trip id="376" depart="762" from="n36-n24" to="n54-n19"/>
<trip id="377" depart="763" from="n43-n57" to="n2-n18"/>
<trip id="378" depart="763" from="n20-n4" to="n24-n36"/>
<trip id="379" depart="764" from="n43-n57" to="n29-n41"/>
<trip id="380" depart="766" from="n43-n57" to="n54-n19"/>
<trip id="381" depart="768" from="n19-n54" to="n53-n38"/>
<trip id="382" depart="769" from="n19-n54" to="n57-n43"/>
<trip id="383" depart="769" from="n42-n30" to="n53-n38"/>
<trip id="384" depart="771" from="n36-n24" to="n26-n37"/>
<trip id="385" depart="777" from="n38-n53" to="n54-n19"/>
<trip id="386" depart="780" from="n39-n33" to="n57-n43"/>
<trip id="387" depart="781" from="n42-n30" to="n1-n17"/>
<trip id="388" depart="783" from="n38-n53" to="n33-n39"/>
<trip id="389" depart="785" from="n43-n57" to="n53-n38"/>
<trip id="390" depart="785" from="n38-n53" to="n54-n19"/>
<trip id="391" depart="785" from="n39-n33" to="n22-n35"/>
<trip id="392" depart="785" from="n35-n22" to="n57-n43"/>
<trip id="393" depart="789" from="n27-n51" to="n22-n35"/>
<trip id="394" depart="791" from="n43-n57" to="n53-n38"/>
<trip id="395" depart="792" from="n19-n54" to="n33-n45"/>
<trip id="396" depart="793" from="n43-n57" to="n51-n27"/>
<trip id="397" depart="797" from="n19-n54" to="n22-n34"/>
<trip id="398" depart="798" from="n19-n54" to="n9-n25"/>
<trip id="399" depart="798" from="n18-n2" to="n53-n38"/>
<trip id="400" depart="799" from="n43-n57" to="n4-n20"/>
<trip id="401" depart="803" from="n39-n33" to="n53-n38"/>
<trip id="402" depart="804" from="n44-n32" to="n29-n41"/>
<trip id="403" depart="806" from="n38-n53" to="n29-n41"/>
<trip id="404" depart="811" from="n40-n29" to="n57-n43"/>
<trip id="405" depart="812" from="n19-n54" to="n53-n38"/>
<trip id="406" depart="814" from="n27-n51" to="n57-n43"/>
<trip id="407" depart="814" from="n44-n32" to="n5-n23"/>
<trip id="408" depart="815" from="n25-n9" to="n51-n27"/>
<trip id="409" depart="820" from="n45-n33" to="n53-n38"/>
<trip id="410" depart="821" from="n38-n53" to="n54-n19"/>
<trip id="411" depart="823" from="n45-n33" to="n30-n42"/>
<trip id="412" depart="823" from="n19-n54" to="n57-n43"/>
<trip id="413" depart="825" from="n38-n53" to="n54-n19"/>
<trip id="414" depart="827" from="n27-n51" to="n1-n21"/>
<trip id="415" depart="827" from="n45-n33" to="n1-n21"/>
<trip id="416" depart="827" from="n19-n54" to="n9-n25"/>
<trip id="417" depart="829" from="n37-n26" to="n57-n43"/>
<trip id="418" depart="833" from="n38-n53" to="n54-n19"/>
<trip id="419" depart="833" from="n43-n57" to="n33-n45"/>
<trip id="420" depart="837" from="n19-n54" to="n2-n18"/>
<trip id="421" depart="840" from="n27-n51" to="n57-n43"/>
<trip id="422" depart="840" from="n34-n22" to="n51-n27"/>
<trip id="423" depart="841" from="n17-n1" to="n22-n34"/>
<trip id="424" depart="843" from="n40-n29" to="n54-n19"/>
<trip id="425" depart="847" from="n43-n57" to="n51-n27"/>
<trip id="426" depart="847" from="n19-n54" to="n9-n25"/>
<trip id="427" depart="848" from="n27-n51" to="n29-n40"/>
<trip id="428" depart="851" from="n38-n53" to="n57-n43"/>
<trip id="429" depart="851" from="n36-n24" to="n57-n43"/>
<trip id="430" depart="853" from="n44-n32" to="n4-n20"/>
<trip id="431" depart="854" from="n40-n29" to="n1-n21"/>
<trip id="432" depart="855" from="n25-n9" to="n54-n19"/>
<trip id="433" depart="856" from="n43-n57" to="n51-n27"/>
<trip id="434" depart="856" from="n43-n57" to="n54-n19"/>
<trip id="435" depart="858" from="n19-n54" to="n51-n27"/>
<trip id="436" depart="858" from="n23-n5" to="n54-n19"/>
<trip id="437" depart="861" from="n43-n57" to="n22-n35"/>
<trip id="438" depart="861" from="n19-n54" to="n9-n25"/>
<trip id="439" depart="862" from="n27-n51" to="n57-n43"/>
<trip id="440" depart="862" from="n27-n51" to="n57-n43"/>
<trip id="441" depart="863" from="n43-n57" to="n5-n23"/>
<trip id="442" depart="865" from="n43-n57" to="n1-n17"/>
<trip id="443" depart="865" from="n25-n9" to="n57-n43"/>
<trip id="444" depart="866" from="n43-n57" to="n9-n25"/>
<trip id="445" depart="868" from="n41-n29" to="n53-n38"/>
<trip id="446" depart="868" from="n44-n32" to="n51-n27"/>
<trip id="447" depart="869" from="n39-n33" to="n5-n23"/>
<trip id="448" depart="871" from="n27-n51" to="n57-n43"/>
<trip id="449" depart="872" from="n37-n26" to="n1-n21"/>
<trip id="450" depart="872" from="n20-n4" to="n54-n19"/>
<trip id="451" depart="874" from="n19-n54" to="n29-n40"/>
<trip id="452" depart="876" from="n43-n57" to="n51-n27"/>
<trip id="453" depart="877" from="n42-n30" to="n53-n38"/>
<trip id="454" depart="878" from="n18-n2" to="n4-n20"/>
<trip id="455" depart="879" from="n45-n33" to="n22-n35"/>
<trip id="456" depart="883" from="n19-n54" to="n51-n27"/>
<trip id="457" depart="883" from="n21-n1" to="n53-n38"/>
<trip id="458" depart="884" from="n19-n54" to="n2-n18"/>
<trip id="459" depart="886" from="n38-n53" to="n54-n19"/>
<trip id="460" depart="887" from="n19-n54" to="n5-n23"/>
<trip id="461" depart="892" from="n34-n22" to="n1-n21"/>
<trip id="462" depart="892" from="n23-n5" to="n2-n18"/>
<trip id="463" depart="894" from="n38-n53" to="n54-n19"/>
<trip id="464" depart="904" from="n18-n2" to="n51-n27"/>
<trip id="465" depart="904" from="n44-n32" to="n1-n21"/>
<trip id="466" depart="907" from="n19-n54" to="n57-n43"/>
<trip id="467" depart="912" from="n43-n57" to="n29-n41"/>
<trip id="468" depart="913" from="n38-n53" to="n51-n27"/>
<trip id="469" depart="917" from="n38-n53" to="n51-n27"/>
<trip id="470" depart="919" from="n38-n53" to="n4-n20"/>
<trip id="471" depart="920" from="n25-n9" to="n54-n19"/>
<trip id="472" depart="923" from="n38-n53" to="n9-n25"/>
<trip id="473" depart="926" from="n44-n32" to="n9-n25"/>
<trip id="474" depart="927" from="n27-n51" to="n32-n44"/>
<trip id="475" depart="929" from="n17-n1" to="n51-n27"/>
<trip id="476" depart="930" from="n42-n30" to="n33-n39"/>
<trip id="477" depart="932" from="n18-n2" to="n30-n42"/>
<trip id="478" depart="933" from="n25-n9" to="n53-n38"/>
<trip id="479" depart="934" from="n19-n54" to="n33-n39"/>
<trip id="480" depart="938" from="n20-n4" to="n29-n40"/>
<trip id="481" depart="939" from="n27-n51" to="n53-n38"/>
<trip id="482" depart="939" from="n43-n57" to="n51-n27"/>
<trip id="483" depart="941" from="n19-n54" to="n53-n38"/>
<trip id="484" depart="948" from="n18-n2" to="n57-n43"/>
<trip id="485" depart="949" from="n27-n51" to="n57-n43"/>
<trip id="486" depart="951" from="n43-n57" to="n2-n18"/>
<trip id="487" depart="951" from="n44-n32" to="n57-n43"/>
<trip id="488" depart="955" from="n37-n26" to="n57-n43"/>
<trip id="489" depart="957" from="n19-n54" to="n4-n20"/>
<trip id="490" depart="958" from="n19-n54" to="n22-n34"/>
<trip id="491" depart="960" from="n43-n57" to="n51-n27"/>
<trip id="492" depart="962" from="n19-n54" to="n57-n43"/>
<trip id="493" depart="963" from="n20-n4" to="n53-n38"/>
<trip id="494" depart="964" from="n27-n51" to="n1-n21"/>
<trip id="495" depart="965" from="n17-n1" to="n33-n39"/>
<trip id="496" depart="967" from="n43-n57" to="n54-n19"/>
<trip id="497" depart="967" from="n39-n33" to="n51-n27"/>
<trip id="498" depart="968" from="n27-n51" to="n2-n18"/>
<trip id="499" depart="974" from="n38-n53" to="n33-n39"/>
<trip id="500" depart="975" from="n37-n26" to="n9-n25"/>
<trip id="501" depart="975" from="n19-n54" to="n57-n43"/>
<trip id="502" depart="976" from="n27-n51" to="n57-n43"/>
<trip id="503" depart="978" from="n35-n22" to="n1-n17"/>
<trip id="504" depart="979" from="n40-n29" to="n54-n19"/>
<trip id="505" depart="979" from="n44-n32" to="n33-n39"/>
<trip id="506" depart="981" from="n21-n1" to="n22-n34"/>
<trip id="507" depart="984" from="n21-n1" to="n22-n35"/>
<trip id="508" depart="984" from="n39-n33" to="n57-n43"/>
<trip id="509" depart="985" from="n21-n1" to="n54-n19"/>
<trip id="510" depart="987" from="n38-n53" to="n26-n37"/>
<trip id="511" depart="987" from="n37-n26" to="n22-n35"/>
<trip id="512" depart="993" from="n27-n51" to="n54-n19"/>
<trip id="513" depart="998" from="n38-n53" to="n9-n25"/>
<trip id="514" depart="998" from="n17-n1" to="n32-n44"/>
<trip id="515" depart="1003" from="n27-n51" to="n54-n19"/>
<trip id="516" depart="1004" from="n25-n9" to="n57-n43"/>
<trip id="517" depart="1005" from="n18-n2" to="n57-n43"/>
<trip id="518" depart="1007" from="n40-n29" to="n30-n42"/>
<trip id="519" depart="1007" from="n19-n54" to="n1-n21"/>