<routes>
    <vType accel="1.0" decel="5.0" id="Car" jmIgnoreKeepClearTime="100.0" maxSpeed="30" length="3" />
        
    <!--emergencyDecel="0.0"-->
    <trip id="0" depart="179" from="n41-n29" to="n54-n19"/>
<trip id="1" depart="181" from="n19-n54" to="n29-n40"/>
<trip id="2" depart="719" from="n42-n30" to="n26-n37"/>
<trip id="3" depart="1103" from="n43-n57" to="n2-n18"/>
<trip id="4" depart="1192" from="n20-n4" to="n22-n35"/>
<trip id="5" depart="1292" from="n43-n57" to="n54-n19"/>
<trip id="6" depart="1535" from="n43-n57" to="n29-n41"/>
<trip id="7" depart="1549" from="n43-n57" to="n51-n27"/>
<trip id="8" depart="1732" from="n38-n53" to="n57-n43"/>
<trip id="9" depart="1806" from="n19-n54" to="n53-n38"/>


</routes>