<routes>
    <vType accel="1.0" decel="5.0" id="Car" jmIgnoreKeepClearTime="100.0" maxSpeed="30" length="3" />
        
    <!--emergencyDecel="0.0"-->
    <trip id="0" depart="2" from="n43-n57" to="n54-n19"/>
<trip id="1" depart="3" from="n38-n53" to="n51-n27"/>
<trip id="2" depart="3" from="n19-n54" to="n57-n43"/>
<trip id="3" depart="3" from="n43-n57" to="n32-n44"/>
<trip id="4" depart="5" from="n43-n57" to="n51-n27"/>
<trip id="5" depart="6" from="n21-n1" to="n29-n40"/>
<trip id="6" depart="7" from="n20-n4" to="n53-n38"/>
<trip id="7" depart="11" from="n18-n2" to="n51-n27"/>
<trip id="8" depart="12" from="n23-n5" to="n22-n34"/>
<trip id="9" depart="13" from="n39-n33" to="n26-n37"/>
<trip id="10" depart="17" from="n27-n51" to="n22-n35"/>
<trip id="11" depart="17" from="n36-n24" to="n57-n43"/>
<trip id="12" depart="18" from="n18-n2" to="n57-n43"/>
<trip id="13" depart="19" from="n45-n33" to="n5-n23"/>
<trip id="14" depart="28" from="n19-n54" to="n53-n38"/>
<trip id="15" depart="30" from="n43-n57" to="n54-n19"/>
<trip id="16" depart="35" from="n43-n57" to="n30-n42"/>
<trip id="17" depart="36" from="n43-n57" to="n51-n27"/>
<trip id="18" depart="37" from="n18-n2" to="n22-n34"/>
<trip id="19" depart="37" from="n38-n53" to="n29-n40"/>
<trip id="20" depart="38" from="n43-n57" to="n29-n40"/>
<trip id="21" depart="39" from="n19-n54" to="n53-n38"/>
<trip id="22" depart="40" from="n40-n29" to="n53-n38"/>
<trip id="23" depart="43" from="n21-n1" to="n53-n38"/>
<trip id="24" depart="45" from="n45-n33" to="n4-n20"/>
<trip id="25" depart="48" from="n43-n57" to="n9-n25"/>
<trip id="26" depart="54" from="n19-n54" to="n1-n17"/>
<trip id="27" depart="54" from="n23-n5" to="n57-n43"/>
<trip id="28" depart="62" from="n38-n53" to="n22-n35"/>
<trip id="29" depart="62" from="n44-n32" to="n1-n21"/>
<trip id="30" depart="65" from="n19-n54" to="n22-n34"/>
<trip id="31" depart="72" from="n20-n4" to="n5-n23"/>
<trip id="32" depart="74" from="n19-n54" to="n29-n40"/>
<trip id="33" depart="75" from="n34-n22" to="n54-n19"/>
<trip id="34" depart="79" from="n39-n33" to="n57-n43"/>
<trip id="35" depart="79" from="n27-n51" to="n24-n36"/>
<trip id="36" depart="84" from="n43-n57" to="n4-n20"/>
<trip id="37" depart="85" from="n34-n22" to="n53-n38"/>
<trip id="38" depart="90" from="n43-n57" to="n33-n45"/>
<trip id="39" depart="91" from="n39-n33" to="n54-n19"/>
<trip id="40" depart="92" from="n21-n1" to="n5-n23"/>
<trip id="41" depart="93" from="n38-n53" to="n2-n18"/>
<trip id="42" depart="93" from="n36-n24" to="n2-n18"/>
<trip id="43" depart="94" from="n38-n53" to="n51-n27"/>
<trip id="44" depart="98" from="n38-n53" to="n54-n19"/>
<trip id="45" depart="101" from="n20-n4" to="n33-n39"/>
<trip id="46" depart="111" from="n25-n9" to="n4-n20"/>
<trip id="47" depart="112" from="n25-n9" to="n51-n27"/>
<trip id="48" depart="114" from="n19-n54" to="n22-n35"/>
<trip id="49" depart="115" from="n36-n24" to="n22-n34"/>
<trip id="50" depart="115" from="n38-n53" to="n1-n17"/>
<trip id="51" depart="117" from="n38-n53" to="n9-n25"/>
<trip id="52" depart="118" from="n42-n30" to="n22-n35"/>
<trip id="53" depart="119" from="n42-n30" to="n33-n39"/>
<trip id="54" depart="120" from="n19-n54" to="n57-n43"/>
<trip id="55" depart="120" from="n38-n53" to="n57-n43"/>
<trip id="56" depart="121" from="n19-n54" to="n9-n25"/>
<trip id="57" depart="126" from="n17-n1" to="n24-n36"/>
<trip id="58" depart="126" from="n37-n26" to="n54-n19"/>
<trip id="59" depart="130" from="n34-n22" to="n57-n43"/>
<trip id="60" depart="132" from="n35-n22" to="n24-n36"/>
<trip id="61" depart="139" from="n17-n1" to="n54-n19"/>
<trip id="62" depart="143" from="n23-n5" to="n54-n19"/>
<trip id="63" depart="143" from="n40-n29" to="n54-n19"/>
<trip id="64" depart="151" from="n43-n57" to="n51-n27"/>
<trip id="65" depart="152" from="n34-n22" to="n54-n19"/>
<trip id="66" depart="157" from="n39-n33" to="n54-n19"/>
<trip id="67" depart="158" from="n19-n54" to="n33-n45"/>
<trip id="68" depart="164" from="n19-n54" to="n9-n25"/>
<trip id="69" depart="165" from="n44-n32" to="n54-n19"/>
<trip id="70" depart="166" from="n41-n29" to="n51-n27"/>
<trip id="71" depart="167" from="n19-n54" to="n57-n43"/>
<trip id="72" depart="167" from="n40-n29" to="n30-n42"/>
<trip id="73" depart="169" from="n38-n53" to="n51-n27"/>
<trip id="74" depart="171" from="n38-n53" to="n33-n45"/>
<trip id="75" depart="174" from="n27-n51" to="n53-n38"/>
<trip id="76" depart="177" from="n43-n57" to="n54-n19"/>
<trip id="77" depart="182" from="n40-n29" to="n57-n43"/>
<trip id="78" depart="184" from="n27-n51" to="n4-n20"/>
<trip id="79" depart="184" from="n43-n57" to="n54-n19"/>
<trip id="80" depart="185" from="n38-n53" to="n1-n17"/>
<trip id="81" depart="192" from="n19-n54" to="n53-n38"/>
<trip id="82" depart="194" from="n37-n26" to="n57-n43"/>
<trip id="83" depart="198" from="n36-n24" to="n29-n40"/>
<trip id="84" depart="203" from="n36-n24" to="n9-n25"/>
<trip id="85" depart="206" from="n27-n51" to="n33-n39"/>
<trip id="86" depart="206" from="n20-n4" to="n57-n43"/>
<trip id="87" depart="206" from="n38-n53" to="n4-n20"/>
<trip id="88" depart="209" from="n45-n33" to="n30-n42"/>
<trip id="89" depart="216" from="n44-n32" to="n57-n43"/>
<trip id="90" depart="218" from="n37-n26" to="n54-n19"/>
<trip id="91" depart="218" from="n37-n26" to="n4-n20"/>
<trip id="92" depart="219" from="n38-n53" to="n51-n27"/>
<trip id="93" depart="220" from="n38-n53" to="n54-n19"/>
<trip id="94" depart="221" from="n43-n57" to="n54-n19"/>
<trip id="95" depart="221" from="n43-n57" to="n54-n19"/>
<trip id="96" depart="229" from="n27-n51" to="n53-n38"/>
<trip id="97" depart="231" from="n19-n54" to="n33-n39"/>
<trip id="98" depart="232" from="n19-n54" to="n1-n21"/>
<trip id="99" depart="235" from="n19-n54" to="n30-n42"/>
<trip id="100" depart="236" from="n27-n51" to="n53-n38"/>
<trip id="101" depart="241" from="n36-n24" to="n57-n43"/>
<trip id="102" depart="244" from="n38-n53" to="n24-n36"/>
<trip id="103" depart="244" from="n19-n54" to="n57-n43"/>
<trip id="104" depart="245" from="n20-n4" to="n57-n43"/>
<trip id="105" depart="247" from="n35-n22" to="n33-n45"/>
<trip id="106" depart="251" from="n38-n53" to="n1-n17"/>
<trip id="107" depart="253" from="n34-n22" to="n53-n38"/>
<trip id="108" depart="258" from="n38-n53" to="n32-n44"/>
<trip id="109" depart="259" from="n37-n26" to="n54-n19"/>
<trip id="110" depart="259" from="n35-n22" to="n57-n43"/>
<trip id="111" depart="260" from="n21-n1" to="n53-n38"/>
<trip id="112" depart="268" from="n19-n54" to="n57-n43"/>
<trip id="113" depart="270" from="n43-n57" to="n26-n37"/>
<trip id="114" depart="273" from="n36-n24" to="n33-n39"/>
<trip id="115" depart="275" from="n44-n32" to="n51-n27"/>
<trip id="116" depart="276" from="n38-n53" to="n9-n25"/>
<trip id="117" depart="278" from="n44-n32" to="n54-n19"/>
<trip id="118" depart="280" from="n36-n24" to="n9-n25"/>
<trip id="119" depart="280" from="n39-n33" to="n26-n37"/>
<trip id="120" depart="285" from="n43-n57" to="n29-n41"/>
<trip id="121" depart="296" from="n25-n9" to="n2-n18"/>
<trip id="122" depart="296" from="n27-n51" to="n57-n43"/>
<trip id="123" depart="297" from="n34-n22" to="n1-n21"/>
<trip id="124" depart="306" from="n37-n26" to="n54-n19"/>
<trip id="125" depart="308" from="n42-n30" to="n22-n35"/>
<trip id="126" depart="308" from="n35-n22" to="n57-n43"/>
<trip id="127" depart="309" from="n37-n26" to="n4-n20"/>
<trip id="128" depart="311" from="n21-n1" to="n54-n19"/>
<trip id="129" depart="312" from="n43-n57" to="n53-n38"/>
<trip id="130" depart="314" from="n37-n26" to="n9-n25"/>
<trip id="131" depart="314" from="n34-n22" to="n51-n27"/>
<trip id="132" depart="314" from="n19-n54" to="n22-n35"/>
<trip id="133" depart="314" from="n38-n53" to="n33-n39"/>
<trip id="134" depart="318" from="n43-n57" to="n33-n39"/>
<trip id="135" depart="320" from="n25-n9" to="n1-n17"/>
<trip id="136" depart="324" from="n19-n54" to="n26-n37"/>
<trip id="137" depart="329" from="n35-n22" to="n53-n38"/>
<trip id="138" depart="329" from="n43-n57" to="n33-n45"/>
<trip id="139" depart="332" from="n43-n57" to="n33-n45"/>
<trip id="140" depart="332" from="n18-n2" to="n57-n43"/>
<trip id="141" depart="333" from="n36-n24" to="n1-n17"/>
<trip id="142" depart="333" from="n27-n51" to="n53-n38"/>
<trip id="143" depart="334" from="n19-n54" to="n5-n23"/>
<trip id="144" depart="335" from="n21-n1" to="n26-n37"/>
<trip id="145" depart="336" from="n34-n22" to="n29-n41"/>
<trip id="146" depart="340" from="n19-n54" to="n9-n25"/>
<trip id="147" depart="345" from="n34-n22" to="n53-n38"/>
<trip id="148" depart="348" from="n43-n57" to="n54-n19"/>
<trip id="149" depart="350" from="n38-n53" to="n29-n41"/>
<trip id="150" depart="353" from="n37-n26" to="n51-n27"/>
<trip id="151" depart="354" from="n43-n57" to="n2-n18"/>
<trip id="152" depart="354" from="n38-n53" to="n33-n45"/>
<trip id="153" depart="354" from="n19-n54" to="n53-n38"/>
<trip id="154" depart="356" from="n34-n22" to="n53-n38"/>
<trip id="155" depart="356" from="n38-n53" to="n57-n43"/>
<trip id="156" depart="363" from="n38-n53" to="n54-n19"/>
<trip id="157" depart="367" from="n27-n51" to="n54-n19"/>
<trip id="158" depart="368" from="n27-n51" to="n57-n43"/>
<trip id="159" depart="369" from="n27-n51" to="n57-n43"/>
<trip id="160" depart="369" from="n38-n53" to="n57-n43"/>
<trip id="161" depart="369" from="n41-n29" to="n33-n45"/>
<trip id="162" depart="372" from="n42-n30" to="n1-n17"/>
<trip id="163" depart="373" from="n43-n57" to="n53-n38"/>
<trip id="164" depart="375" from="n35-n22" to="n5-n23"/>
<trip id="165" depart="376" from="n27-n51" to="n57-n43"/>
<trip id="166" depart="378" from="n38-n53" to="n24-n36"/>
<trip id="167" depart="378" from="n43-n57" to="n53-n38"/>
<trip id="168" depart="381" from="n43-n57" to="n24-n36"/>
<trip id="169" depart="381" from="n27-n51" to="n29-n41"/>
<trip id="170" depart="383" from="n38-n53" to="n51-n27"/>
<trip id="171" depart="384" from="n27-n51" to="n24-n36"/>
<trip id="172" depart="385" from="n40-n29" to="n57-n43"/>
<trip id="173" depart="385" from="n43-n57" to="n26-n37"/>
<trip id="174" depart="386" from="n19-n54" to="n53-n38"/>
<trip id="175" depart="386" from="n21-n1" to="n54-n19"/>
<trip id="176" depart="389" from="n39-n33" to="n5-n23"/>
<trip id="177" depart="392" from="n39-n33" to="n1-n21"/>
<trip id="178" depart="393" from="n27-n51" to="n1-n21"/>
<trip id="179" depart="393" from="n23-n5" to="n1-n17"/>
<trip id="180" depart="396" from="n38-n53" to="n33-n45"/>
<trip id="181" depart="397" from="n19-n54" to="n33-n39"/>
<trip id="182" depart="402" from="n43-n57" to="n54-n19"/>
<trip id="183" depart="404" from="n39-n33" to="n9-n25"/>
<trip id="184" depart="404" from="n38-n53" to="n30-n42"/>
<trip id="185" depart="405" from="n20-n4" to="n5-n23"/>
<trip id="186" depart="406" from="n19-n54" to="n32-n44"/>
<trip id="187" depart="406" from="n19-n54" to="n57-n43"/>
<trip id="188" depart="407" from="n34-n22" to="n29-n40"/>
<trip id="189" depart="408" from="n37-n26" to="n57-n43"/>
<trip id="190" depart="409" from="n27-n51" to="n24-n36"/>
<trip id="191" depart="411" from="n19-n54" to="n57-n43"/>
<trip id="192" depart="412" from="n43-n57" to="n33-n39"/>
<trip id="193" depart="420" from="n41-n29" to="n54-n19"/>
<trip id="194" depart="420" from="n27-n51" to="n22-n35"/>
<trip id="195" depart="421" from="n19-n54" to="n51-n27"/>
<trip id="196" depart="422" from="n19-n54" to="n22-n34"/>
<trip id="197" depart="422" from="n38-n53" to="n54-n19"/>
<trip id="198" depart="426" from="n39-n33" to="n53-n38"/>
<trip id="199" depart="429" from="n43-n57" to="n22-n34"/>
<trip id="200" depart="431" from="n21-n1" to="n53-n38"/>
<trip id="201" depart="431" from="n25-n9" to="n57-n43"/>
<trip id="202" depart="431" from="n34-n22" to="n54-n19"/>
<trip id="203" depart="431" from="n43-n57" to="n53-n38"/>
<trip id="204" depart="432" from="n18-n2" to="n57-n43"/>
<trip id="205" depart="433" from="n43-n57" to="n51-n27"/>
<trip id="206" depart="435" from="n38-n53" to="n51-n27"/>
<trip id="207" depart="437" from="n27-n51" to="n53-n38"/>
<trip id="208" depart="437" from="n34-n22" to="n2-n18"/>
<trip id="209" depart="438" from="n42-n30" to="n57-n43"/>
<trip id="210" depart="439" from="n19-n54" to="n1-n21"/>
<trip id="211" depart="440" from="n39-n33" to="n9-n25"/>
<trip id="212" depart="440" from="n20-n4" to="n57-n43"/>
<trip id="213" depart="440" from="n34-n22" to="n26-n37"/>
<trip id="214" depart="440" from="n23-n5" to="n53-n38"/>
<trip id="215" depart="442" from="n40-n29" to="n53-n38"/>
<trip id="216" depart="443" from="n40-n29" to="n54-n19"/>
<trip id="217" depart="445" from="n45-n33" to="n5-n23"/>
<trip id="218" depart="450" from="n21-n1" to="n54-n19"/>
<trip id="219" depart="453" from="n39-n33" to="n29-n40"/>
<trip id="220" depart="458" from="n43-n57" to="n30-n42"/>
<trip id="221" depart="458" from="n43-n57" to="n53-n38"/>
<trip id="222" depart="459" from="n39-n33" to="n51-n27"/>
<trip id="223" depart="459" from="n19-n54" to="n57-n43"/>
<trip id="224" depart="464" from="n43-n57" to="n9-n25"/>
<trip id="225" depart="468" from="n38-n53" to="n57-n43"/>
<trip id="226" depart="468" from="n38-n53" to="n51-n27"/>
<trip id="227" depart="469" from="n39-n33" to="n53-n38"/>
<trip id="228" depart="469" from="n27-n51" to="n53-n38"/>
<trip id="229" depart="470" from="n25-n9" to="n30-n42"/>
<trip id="230" depart="470" from="n17-n1" to="n1-n21"/>
<trip id="231" depart="478" from="n42-n30" to="n57-n43"/>
<trip id="232" depart="481" from="n41-n29" to="n57-n43"/>
<trip id="233" depart="482" from="n43-n57" to="n2-n18"/>
<trip id="234" depart="485" from="n38-n53" to="n32-n44"/>
<trip id="235" depart="487" from="n43-n57" to="n4-n20"/>
<trip id="236" depart="487" from="n27-n51" to="n26-n37"/>
<trip id="237" depart="491" from="n44-n32" to="n54-n19"/>
<trip id="238" depart="492" from="n38-n53" to="n54-n19"/>
<trip id="239" depart="493" from="n17-n1" to="n22-n34"/>
<trip id="240" depart="496" from="n19-n54" to="n51-n27"/>
<trip id="241" depart="498" from="n27-n51" to="n2-n18"/>
<trip id="242" depart="498" from="n45-n33" to="n57-n43"/>
<trip id="243" depart="502" from="n43-n57" to="n29-n41"/>
<trip id="244" depart="505" from="n35-n22" to="n1-n21"/>
<trip id="245" depart="505" from="n43-n57" to="n54-n19"/>
<trip id="246" depart="505" from="n25-n9" to="n33-n45"/>
<trip id="247" depart="507" from="n25-n9" to="n53-n38"/>
<trip id="248" depart="516" from="n36-n24" to="n57-n43"/>
<trip id="249" depart="516" from="n27-n51" to="n57-n43"/>
<trip id="250" depart="516" from="n19-n54" to="n30-n42"/>
<trip id="251" depart="516" from="n39-n33" to="n57-n43"/>
<trip id="252" depart="516" from="n35-n22" to="n57-n43"/>
<trip id="253" depart="518" from="n23-n5" to="n51-n27"/>
<trip id="254" depart="520" from="n43-n57" to="n29-n41"/>
<trip id="255" depart="522" from="n40-n29" to="n30-n42"/>
<trip id="256" depart="524" from="n20-n4" to="n54-n19"/>
<trip id="257" depart="525" from="n43-n57" to="n51-n27"/>
<trip id="258" depart="527" from="n43-n57" to="n54-n19"/>
<trip id="259" depart="527" from="n19-n54" to="n51-n27"/>
<trip id="260" depart="529" from="n38-n53" to="n29-n40"/>
<trip id="261" depart="529" from="n19-n54" to="n51-n27"/>
<trip id="262" depart="534" from="n38-n53" to="n57-n43"/>
<trip id="263" depart="534" from="n38-n53" to="n51-n27"/>
<trip id="264" depart="538" from="n27-n51" to="n29-n40"/>
<trip id="265" depart="540" from="n43-n57" to="n29-n41"/>
<trip id="266" depart="541" from="n43-n57" to="n54-n19"/>
<trip id="267" depart="546" from="n19-n54" to="n57-n43"/>
<trip id="268" depart="547" from="n43-n57" to="n29-n40"/>
<trip id="269" depart="548" from="n45-n33" to="n22-n35"/>
<trip id="270" depart="554" from="n39-n33" to="n54-n19"/>
<trip id="271" depart="555" from="n27-n51" to="n26-n37"/>
<trip id="272" depart="555" from="n27-n51" to="n9-n25"/>
<trip id="273" depart="562" from="n27-n51" to="n54-n19"/>
<trip id="274" depart="564" from="n19-n54" to="n51-n27"/>
<trip id="275" depart="564" from="n19-n54" to="n57-n43"/>
<trip id="276" depart="570" from="n27-n51" to="n57-n43"/>
<trip id="277" depart="577" from="n42-n30" to="n2-n18"/>
<trip id="278" depart="579" from="n27-n51" to="n53-n38"/>
<trip id="279" depart="579" from="n38-n53" to="n29-n40"/>
<trip id="280" depart="580" from="n19-n54" to="n51-n27"/>
<trip id="281" depart="581" from="n43-n57" to="n53-n38"/>
<trip id="282" depart="581" from="n37-n26" to="n33-n45"/>
<trip id="283" depart="581" from="n38-n53" to="n51-n27"/>
<trip id="284" depart="582" from="n17-n1" to="n29-n40"/>
<trip id="285" depart="585" from="n38-n53" to="n57-n43"/>
<trip id="286" depart="594" from="n27-n51" to="n54-n19"/>
<trip id="287" depart="599" from="n19-n54" to="n1-n21"/>
<trip id="288" depart="603" from="n19-n54" to="n53-n38"/>
<trip id="289" depart="605" from="n19-n54" to="n57-n43"/>
<trip id="290" depart="607" from="n44-n32" to="n30-n42"/>
<trip id="291" depart="608" from="n36-n24" to="n22-n35"/>
<trip id="292" depart="613" from="n35-n22" to="n33-n45"/>
<trip id="293" depart="615" from="n38-n53" to="n54-n19"/>
<trip id="294" depart="616" from="n40-n29" to="n54-n19"/>
<trip id="295" depart="616" from="n27-n51" to="n57-n43"/>
<trip id="296" depart="619" from="n19-n54" to="n22-n34"/>
<trip id="297" depart="622" from="n34-n22" to="n24-n36"/>
<trip id="298" depart="622" from="n27-n51" to="n24-n36"/>
<trip id="299" depart="622" from="n43-n57" to="n51-n27"/>
<trip id="300" depart="624" from="n23-n5" to="n9-n25"/>
<trip id="301" depart="626" from="n39-n33" to="n57-n43"/>
<trip id="302" depart="626" from="n43-n57" to="n2-n18"/>
<trip id="303" depart="627" from="n35-n22" to="n9-n25"/>
<trip id="304" depart="631" from="n17-n1" to="n26-n37"/>
<trip id="305" depart="631" from="n25-n9" to="n51-n27"/>
<trip id="306" depart="634" from="n38-n53" to="n54-n19"/>
<trip id="307" depart="637" from="n19-n54" to="n1-n17"/>
<trip id="308" depart="637" from="n43-n57" to="n54-n19"/>
<trip id="309" depart="638" from="n19-n54" to="n29-n40"/>
<trip id="310" depart="639" from="n19-n54" to="n1-n21"/>
<trip id="311" depart="641" from="n43-n57" to="n54-n19"/>
<trip id="312" depart="641" from="n19-n54" to="n1-n17"/>
<trip id="313" depart="643" from="n20-n4" to="n5-n23"/>
<trip id="314" depart="650" from="n44-n32" to="n54-n19"/>
<trip id="315" depart="652" from="n19-n54" to="n57-n43"/>
<trip id="316" depart="653" from="n38-n53" to="n54-n19"/>
<trip id="317" depart="655" from="n19-n54" to="n4-n20"/>
<trip id="318" depart="655" from="n19-n54" to="n53-n38"/>
<trip id="319" depart="657" from="n38-n53" to="n1-n21"/>
<trip id="320" depart="657" from="n38-n53" to="n1-n17"/>
<trip id="321" depart="658" from="n19-n54" to="n22-n34"/>
<trip id="322" depart="660" from="n27-n51" to="n22-n34"/>
<trip id="323" depart="663" from="n43-n57" to="n1-n21"/>
<trip id="324" depart="664" from="n17-n1" to="n51-n27"/>
<trip id="325" depart="664" from="n38-n53" to="n54-n19"/>
<trip id="326" depart="666" from="n20-n4" to="n57-n43"/>
<trip id="327" depart="668" from="n43-n57" to="n54-n19"/>
<trip id="328" depart="669" from="n43-n57" to="n53-n38"/>
<trip id="329" depart="676" from="n27-n51" to="n57-n43"/>
<trip id="330" depart="676" from="n38-n53" to="n30-n42"/>
<trip id="331" depart="678" from="n38-n53" to="n51-n27"/>
<trip id="332" depart="679" from="n27-n51" to="n24-n36"/>
<trip id="333" depart="682" from="n43-n57" to="n51-n27"/>
<trip id="334" depart="682" from="n27-n51" to="n57-n43"/>
<trip id="335" depart="684" from="n45-n33" to="n57-n43"/>
<trip id="336" depart="687" from="n27-n51" to="n24-n36"/>
<trip id="337" depart="688" from="n38-n53" to="n57-n43"/>
<trip id="338" depart="688" from="n27-n51" to="n24-n36"/>
<trip id="339" depart="691" from="n21-n1" to="n29-n41"/>
<trip id="340" depart="692" from="n18-n2" to="n57-n43"/>
<trip id="341" depart="692" from="n39-n33" to="n30-n42"/>
<trip id="342" depart="693" from="n43-n57" to="n53-n38"/>
<trip id="343" depart="694" from="n38-n53" to="n51-n27"/>
<trip id="344" depart="696" from="n38-n53" to="n54-n19"/>
<trip id="345" depart="699" from="n35-n22" to="n9-n25"/>
<trip id="346" depart="699" from="n19-n54" to="n29-n40"/>
<trip id="347" depart="701" from="n27-n51" to="n54-n19"/>
<trip id="348" depart="702" from="n43-n57" to="n51-n27"/>
<trip id="349" depart="702" from="n43-n57" to="n54-n19"/>
<trip id="350" depart="703" from="n27-n51" to="n57-n43"/>
<trip id="351" depart="704" from="n43-n57" to="n54-n19"/>
<trip id="352" depart="705" from="n19-n54" to="n53-n38"/>
<trip id="353" depart="707" from="n44-n32" to="n2-n18"/>
<trip id="354" depart="709" from="n19-n54" to="n51-n27"/>
<trip id="355" depart="710" from="n20-n4" to="n30-n42"/>
<trip id="356" depart="717" from="n38-n53" to="n26-n37"/>
<trip id="357" depart="719" from="n19-n54" to="n2-n18"/>
<trip id="358" depart="719" from="n37-n26" to="n9-n25"/>
<trip id="359" depart="720" from="n19-n54" to="n53-n38"/>
<trip id="360" depart="722" from="n43-n57" to="n22-n34"/>
<trip id="361" depart="722" from="n44-n32" to="n54-n19"/>
<trip id="362" depart="726" from="n38-n53" to="n30-n42"/>
<trip id="363" depart="729" from="n19-n54" to="n1-n21"/>
<trip id="364" depart="729" from="n19-n54" to="n57-n43"/>
<trip id="365" depart="730" from="n43-n57" to="n9-n25"/>
<trip id="366" depart="731" from="n34-n22" to="n53-n38"/>
<trip id="367" depart="731" from="n39-n33" to="n51-n27"/>
<trip id="368" depart="734" from="n19-n54" to="n57-n43"/>
<trip id="369" depart="734" from="n27-n51" to="n2-n18"/>
<trip id="370" depart="742" from="n25-n9" to="n22-n35"/>
<trip id="371" depart="743" from="n36-n24" to="n33-n45"/>
<trip id="372" depart="749" from="n18-n2" to="n57-n43"/>
<trip id="373" depart="751" from="n38-n53" to="n54-n19"/>
<trip id="374" depart="752" from="n38-n53" to="n57-n43"/>
<trip id="375" depart="752" from="n25-n9" to="n57-n43"/>
<trip id="376" depart="755" from="n19-n54" to="n57-n43"/>
<trip id="377" depart="755" from="n43-n57" to="n33-n39"/>
<trip id="378" depart="755" from="n38-n53" to="n26-n37"/>
<trip id="379" depart="756" from="n43-n57" to="n51-n27"/>
<trip id="380" depart="757" from="n17-n1" to="n51-n27"/>
<trip id="381" depart="759" from="n17-n1" to="n54-n19"/>
<trip id="382" depart="761" from="n19-n54" to="n29-n41"/>
<trip id="383" depart="764" from="n42-n30" to="n51-n27"/>
<trip id="384" depart="768" from="n19-n54" to="n24-n36"/>
<trip id="385" depart="774" from="n38-n53" to="n51-n27"/>
<trip id="386" depart="777" from="n41-n29" to="n54-n19"/>
<trip id="387" depart="778" from="n36-n24" to="n54-n19"/>
<trip id="388" depart="779" from="n43-n57" to="n54-n19"/>
<trip id="389" depart="781" from="n44-n32" to="n51-n27"/>
<trip id="390" depart="784" from="n41-n29" to="n57-n43"/>
<trip id="391" depart="785" from="n42-n30" to="n4-n20"/>
<trip id="392" depart="785" from="n27-n51" to="n1-n17"/>
<trip id="393" depart="790" from="n27-n51" to="n57-n43"/>
<trip id="394" depart="791" from="n21-n1" to="n30-n42"/>
<trip id="395" depart="794" from="n20-n4" to="n1-n21"/>
<trip id="396" depart="797" from="n27-n51" to="n4-n20"/>
<trip id="397" depart="798" from="n43-n57" to="n53-n38"/>
<trip id="398" depart="799" from="n27-n51" to="n54-n19"/>
<trip id="399" depart="801" from="n35-n22" to="n53-n38"/>
<trip id="400" depart="806" from="n38-n53" to="n54-n19"/>
<trip id="401" depart="813" from="n43-n57" to="n53-n38"/>
<trip id="402" depart="815" from="n38-n53" to="n51-n27"/>
<trip id="403" depart="816" from="n43-n57" to="n1-n17"/>
<trip id="404" depart="817" from="n40-n29" to="n4-n20"/>
<trip id="405" depart="818" from="n19-n54" to="n53-n38"/>
<trip id="406" depart="821" from="n18-n2" to="n24-n36"/>
<trip id="407" depart="826" from="n21-n1" to="n22-n35"/>
<trip id="408" depart="827" from="n27-n51" to="n26-n37"/>
<trip id="409" depart="829" from="n19-n54" to="n57-n43"/>
<trip id="410" depart="830" from="n38-n53" to="n33-n45"/>
<trip id="411" depart="832" from="n19-n54" to="n22-n35"/>
<trip id="412" depart="833" from="n23-n5" to="n57-n43"/>
<trip id="413" depart="837" from="n17-n1" to="n57-n43"/>
<trip id="414" depart="839" from="n17-n1" to="n24-n36"/>
<trip id="415" depart="839" from="n38-n53" to="n57-n43"/>
<trip id="416" depart="846" from="n23-n5" to="n1-n17"/>
<trip id="417" depart="847" from="n19-n54" to="n51-n27"/>
<trip id="418" depart="847" from="n27-n51" to="n30-n42"/>
<trip id="419" depart="848" from="n19-n54" to="n24-n36"/>
<trip id="420" depart="849" from="n27-n51" to="n22-n35"/>
<trip id="421" depart="851" from="n44-n32" to="n57-n43"/>
<trip id="422" depart="852" from="n37-n26" to="n29-n41"/>
<trip id="423" depart="854" from="n27-n51" to="n54-n19"/>
<trip id="424" depart="856" from="n17-n1" to="n51-n27"/>
<trip id="425" depart="857" from="n27-n51" to="n53-n38"/>
<trip id="426" depart="858" from="n38-n53" to="n26-n37"/>
<trip id="427" depart="859" from="n19-n54" to="n2-n18"/>
<trip id="428" depart="860" from="n27-n51" to="n33-n45"/>
<trip id="429" depart="861" from="n19-n54" to="n51-n27"/>
<trip id="430" depart="863" from="n40-n29" to="n57-n43"/>
<trip id="431" depart="870" from="n44-n32" to="n5-n23"/>
<trip id="432" depart="871" from="n43-n57" to="n1-n17"/>
<trip id="433" depart="871" from="n25-n9" to="n33-n39"/>
<trip id="434" depart="872" from="n27-n51" to="n4-n20"/>
<trip id="435" depart="872" from="n23-n5" to="n22-n34"/>
<trip id="436" depart="874" from="n27-n51" to="n32-n44"/>
<trip id="437" depart="876" from="n19-n54" to="n57-n43"/>
<trip id="438" depart="890" from="n19-n54" to="n1-n21"/>
<trip id="439" depart="892" from="n27-n51" to="n57-n43"/>
<trip id="440" depart="893" from="n43-n57" to="n51-n27"/>
<trip id="441" depart="895" from="n21-n1" to="n1-n17"/>
<trip id="442" depart="895" from="n20-n4" to="n1-n21"/>
<trip id="443" depart="896" from="n27-n51" to="n54-n19"/>
<trip id="444" depart="897" from="n38-n53" to="n54-n19"/>
<trip id="445" depart="901" from="n34-n22" to="n29-n41"/>
<trip id="446" depart="903" from="n19-n54" to="n57-n43"/>
<trip id="447" depart="905" from="n40-n29" to="n53-n38"/>
<trip id="448" depart="906" from="n43-n57" to="n1-n21"/>
<trip id="449" depart="908" from="n43-n57" to="n1-n21"/>
<trip id="450" depart="910" from="n37-n26" to="n29-n41"/>
<trip id="451" depart="910" from="n27-n51" to="n22-n34"/>
<trip id="452" depart="910" from="n27-n51" to="n57-n43"/>
<trip id="453" depart="912" from="n43-n57" to="n5-n23"/>
<trip id="454" depart="915" from="n27-n51" to="n29-n40"/>
<trip id="455" depart="919" from="n44-n32" to="n51-n27"/>
<trip id="456" depart="923" from="n43-n57" to="n1-n17"/>
<trip id="457" depart="925" from="n23-n5" to="n53-n38"/>
<trip id="458" depart="925" from="n23-n5" to="n2-n18"/>
<trip id="459" depart="926" from="n37-n26" to="n53-n38"/>
<trip id="460" depart="927" from="n42-n30" to="n4-n20"/>
<trip id="461" depart="929" from="n38-n53" to="n4-n20"/>
<trip id="462" depart="930" from="n45-n33" to="n1-n21"/>
<trip id="463" depart="932" from="n42-n30" to="n53-n38"/>
<trip id="464" depart="933" from="n20-n4" to="n54-n19"/>
<trip id="465" depart="936" from="n38-n53" to="n5-n23"/>
<trip id="466" depart="936" from="n37-n26" to="n33-n45"/>
<trip id="467" depart="938" from="n38-n53" to="n33-n39"/>
<trip id="468" depart="940" from="n40-n29" to="n53-n38"/>
<trip id="469" depart="941" from="n39-n33" to="n29-n40"/>
<trip id="470" depart="942" from="n40-n29" to="n29-n41"/>
<trip id="471" depart="942" from="n40-n29" to="n57-n43"/>
<trip id="472" depart="942" from="n27-n51" to="n33-n39"/>
<trip id="473" depart="945" from="n36-n24" to="n53-n38"/>
<trip id="474" depart="947" from="n43-n57" to="n22-n35"/>
<trip id="475" depart="948" from="n44-n32" to="n57-n43"/>
<trip id="476" depart="951" from="n20-n4" to="n54-n19"/>
<trip id="477" depart="957" from="n17-n1" to="n29-n40"/>
<trip id="478" depart="958" from="n23-n5" to="n29-n41"/>
<trip id="479" depart="958" from="n27-n51" to="n57-n43"/>
<trip id="480" depart="959" from="n42-n30" to="n54-n19"/>
<trip id="481" depart="959" from="n25-n9" to="n54-n19"/>
<trip id="482" depart="962" from="n19-n54" to="n9-n25"/>
<trip id="483" depart="963" from="n27-n51" to="n1-n21"/>
<trip id="484" depart="971" from="n20-n4" to="n29-n41"/>
<trip id="485" depart="971" from="n38-n53" to="n1-n17"/>
<trip id="486" depart="979" from="n19-n54" to="n57-n43"/>
<trip id="487" depart="981" from="n27-n51" to="n53-n38"/>
<trip id="488" depart="984" from="n19-n54" to="n22-n35"/>
<trip id="489" depart="985" from="n34-n22" to="n53-n38"/>
<trip id="490" depart="988" from="n34-n22" to="n29-n41"/>
<trip id="491" depart="991" from="n43-n57" to="n22-n34"/>
<trip id="492" depart="991" from="n43-n57" to="n54-n19"/>
<trip id="493" depart="993" from="n37-n26" to="n9-n25"/>
<trip id="494" depart="996" from="n17-n1" to="n1-n21"/>
<trip id="495" depart="996" from="n18-n2" to="n5-n23"/>
<trip id="496" depart="997" from="n19-n54" to="n29-n41"/>
<trip id="497" depart="1000" from="n38-n53" to="n1-n21"/>
<trip id="498" depart="1010" from="n25-n9" to="n57-n43"/>
<trip id="499" depart="1019" from="n27-n51" to="n9-n25"/>
<trip id="500" depart="1026" from="n20-n4" to="n1-n17"/>
<trip id="501" depart="1028" from="n18-n2" to="n53-n38"/>
<trip id="502" depart="1029" from="n34-n22" to="n53-n38"/>
<trip id="503" depart="1034" from="n43-n57" to="n53-n38"/>
<trip id="504" depart="1034" from="n34-n22" to="n53-n38"/>
<trip id="505" depart="1037" from="n34-n22" to="n9-n25"/>
<trip id="506" depart="1038" from="n19-n54" to="n57-n43"/>
<trip id="507" depart="1041" from="n20-n4" to="n51-n27"/>
<trip id="508" depart="1043" from="n37-n26" to="n32-n44"/>
<trip id="509" depart="1043" from="n43-n57" to="n54-n19"/>
<trip id="510" depart="1044" from="n25-n9" to="n57-n43"/>
<trip id="511" depart="1045" from="n39-n33" to="n53-n38"/>
<trip id="512" depart="1045" from="n43-n57" to="n53-n38"/>
<trip id="513" depart="1045" from="n38-n53" to="n54-n19"/>
<trip id="514" depart="1048" from="n35-n22" to="n26-n37"/>
<trip id="515" depart="1048" from="n38-n53" to="n1-n17"/>
<trip id="516" depart="1053" from="n19-n54" to="n9-n25"/>
<trip id="517" depart="1053" from="n25-n9" to="n53-n38"/>
<trip id="518" depart="1055" from="n35-n22" to="n9-n25"/>
<trip id="519" depart="1056" from="n37-n26" to="n57-n43"/>