<routes>
    <vType accel="1.0" decel="5.0" id="Car" jmIgnoreKeepClearTime="100.0" maxSpeed="30" length="3" />
        
    <!--emergencyDecel="0.0"-->
    <trip id="0" depart="1" from="n41-n29" to="n57-n43"/>
<trip id="1" depart="2" from="n42-n30" to="n57-n43"/>
<trip id="2" depart="5" from="n43-n57" to="n2-n18"/>
<trip id="3" depart="5" from="n18-n2" to="n33-n39"/>
<trip id="4" depart="6" from="n39-n33" to="n54-n19"/>
<trip id="5" depart="7" from="n19-n54" to="n53-n38"/>
<trip id="6" depart="7" from="n41-n29" to="n53-n38"/>
<trip id="7" depart="9" from="n18-n2" to="n24-n36"/>
<trip id="8" depart="10" from="n27-n51" to="n9-n25"/>
<trip id="9" depart="14" from="n41-n29" to="n1-n21"/>
<trip id="10" depart="14" from="n37-n26" to="n1-n21"/>
<trip id="11" depart="15" from="n43-n57" to="n32-n44"/>
<trip id="12" depart="19" from="n37-n26" to="n53-n38"/>
<trip id="13" depart="20" from="n23-n5" to="n51-n27"/>
<trip id="14" depart="22" from="n23-n5" to="n51-n27"/>
<trip id="15" depart="22" from="n27-n51" to="n22-n35"/>
<trip id="16" depart="23" from="n43-n57" to="n54-n19"/>
<trip id="17" depart="24" from="n38-n53" to="n5-n23"/>
<trip id="18" depart="25" from="n19-n54" to="n53-n38"/>
<trip id="19" depart="25" from="n38-n53" to="n51-n27"/>
<trip id="20" depart="27" from="n38-n53" to="n1-n21"/>
<trip id="21" depart="27" from="n44-n32" to="n22-n34"/>
<trip id="22" depart="28" from="n37-n26" to="n30-n42"/>
<trip id="23" depart="29" from="n39-n33" to="n5-n23"/>
<trip id="24" depart="31" from="n20-n4" to="n51-n27"/>
<trip id="25" depart="31" from="n43-n57" to="n53-n38"/>
<trip id="26" depart="31" from="n36-n24" to="n54-n19"/>
<trip id="27" depart="31" from="n27-n51" to="n32-n44"/>
<trip id="28" depart="32" from="n35-n22" to="n1-n21"/>
<trip id="29" depart="32" from="n20-n4" to="n9-n25"/>
<trip id="30" depart="34" from="n27-n51" to="n54-n19"/>
<trip id="31" depart="35" from="n43-n57" to="n54-n19"/>
<trip id="32" depart="35" from="n38-n53" to="n2-n18"/>
<trip id="33" depart="36" from="n38-n53" to="n54-n19"/>
<trip id="34" depart="37" from="n43-n57" to="n2-n18"/>
<trip id="35" depart="39" from="n27-n51" to="n29-n40"/>
<trip id="36" depart="40" from="n19-n54" to="n29-n40"/>
<trip id="37" depart="40" from="n27-n51" to="n57-n43"/>
<trip id="38" depart="40" from="n23-n5" to="n57-n43"/>
<trip id="39" depart="41" from="n38-n53" to="n51-n27"/>
<trip id="40" depart="43" from="n39-n33" to="n32-n44"/>
<trip id="41" depart="44" from="n21-n1" to="n5-n23"/>
<trip id="42" depart="45" from="n37-n26" to="n2-n18"/>
<trip id="43" depart="45" from="n43-n57" to="n26-n37"/>
<trip id="44" depart="45" from="n45-n33" to="n57-n43"/>
<trip id="45" depart="46" from="n21-n1" to="n30-n42"/>
<trip id="46" depart="47" from="n19-n54" to="n26-n37"/>
<trip id="47" depart="48" from="n19-n54" to="n57-n43"/>
<trip id="48" depart="48" from="n19-n54" to="n51-n27"/>
<trip id="49" depart="48" from="n40-n29" to="n54-n19"/>
<trip id="50" depart="49" from="n27-n51" to="n57-n43"/>
<trip id="51" depart="50" from="n38-n53" to="n51-n27"/>
<trip id="52" depart="50" from="n19-n54" to="n57-n43"/>
<trip id="53" depart="52" from="n27-n51" to="n33-n39"/>
<trip id="54" depart="53" from="n23-n5" to="n57-n43"/>
<trip id="55" depart="54" from="n27-n51" to="n54-n19"/>
<trip id="56" depart="54" from="n41-n29" to="n51-n27"/>
<trip id="57" depart="55" from="n17-n1" to="n53-n38"/>
<trip id="58" depart="57" from="n44-n32" to="n26-n37"/>
<trip id="59" depart="59" from="n19-n54" to="n51-n27"/>
<trip id="60" depart="59" from="n38-n53" to="n22-n34"/>
<trip id="61" depart="60" from="n27-n51" to="n5-n23"/>
<trip id="62" depart="63" from="n27-n51" to="n26-n37"/>
<trip id="63" depart="63" from="n43-n57" to="n33-n39"/>
<trip id="64" depart="63" from="n38-n53" to="n24-n36"/>
<trip id="65" depart="64" from="n38-n53" to="n26-n37"/>
<trip id="66" depart="65" from="n19-n54" to="n29-n41"/>
<trip id="67" depart="67" from="n27-n51" to="n57-n43"/>
<trip id="68" depart="67" from="n38-n53" to="n22-n35"/>
<trip id="69" depart="68" from="n43-n57" to="n51-n27"/>
<trip id="70" depart="68" from="n38-n53" to="n29-n41"/>
<trip id="71" depart="69" from="n27-n51" to="n53-n38"/>
<trip id="72" depart="71" from="n41-n29" to="n1-n17"/>
<trip id="73" depart="71" from="n43-n57" to="n51-n27"/>
<trip id="74" depart="72" from="n43-n57" to="n53-n38"/>
<trip id="75" depart="74" from="n37-n26" to="n22-n34"/>
<trip id="76" depart="75" from="n43-n57" to="n53-n38"/>
<trip id="77" depart="76" from="n19-n54" to="n53-n38"/>
<trip id="78" depart="77" from="n44-n32" to="n4-n20"/>
<trip id="79" depart="78" from="n43-n57" to="n53-n38"/>
<trip id="80" depart="80" from="n18-n2" to="n54-n19"/>
<trip id="81" depart="81" from="n19-n54" to="n9-n25"/>
<trip id="82" depart="83" from="n38-n53" to="n2-n18"/>
<trip id="83" depart="84" from="n38-n53" to="n1-n17"/>
<trip id="84" depart="84" from="n27-n51" to="n53-n38"/>
<trip id="85" depart="85" from="n20-n4" to="n57-n43"/>
<trip id="86" depart="86" from="n43-n57" to="n33-n39"/>
<trip id="87" depart="87" from="n19-n54" to="n53-n38"/>
<trip id="88" depart="87" from="n40-n29" to="n5-n23"/>
<trip id="89" depart="87" from="n43-n57" to="n54-n19"/>
<trip id="90" depart="87" from="n27-n51" to="n2-n18"/>
<trip id="91" depart="87" from="n21-n1" to="n29-n40"/>
<trip id="92" depart="88" from="n21-n1" to="n51-n27"/>
<trip id="93" depart="89" from="n34-n22" to="n51-n27"/>
<trip id="94" depart="90" from="n43-n57" to="n53-n38"/>
<trip id="95" depart="91" from="n43-n57" to="n30-n42"/>
<trip id="96" depart="94" from="n19-n54" to="n51-n27"/>
<trip id="97" depart="95" from="n43-n57" to="n54-n19"/>
<trip id="98" depart="97" from="n19-n54" to="n29-n40"/>
<trip id="99" depart="98" from="n34-n22" to="n51-n27"/>
<trip id="100" depart="99" from="n43-n57" to="n32-n44"/>
<trip id="101" depart="101" from="n17-n1" to="n33-n45"/>
<trip id="102" depart="103" from="n37-n26" to="n57-n43"/>
<trip id="103" depart="104" from="n38-n53" to="n32-n44"/>
<trip id="104" depart="104" from="n36-n24" to="n26-n37"/>
<trip id="105" depart="104" from="n43-n57" to="n53-n38"/>
<trip id="106" depart="104" from="n36-n24" to="n4-n20"/>
<trip id="107" depart="105" from="n27-n51" to="n53-n38"/>
<trip id="108" depart="106" from="n25-n9" to="n51-n27"/>
<trip id="109" depart="107" from="n19-n54" to="n51-n27"/>
<trip id="110" depart="108" from="n43-n57" to="n51-n27"/>
<trip id="111" depart="108" from="n19-n54" to="n29-n40"/>
<trip id="112" depart="110" from="n19-n54" to="n53-n38"/>
<trip id="113" depart="112" from="n36-n24" to="n29-n40"/>
<trip id="114" depart="113" from="n34-n22" to="n9-n25"/>
<trip id="115" depart="113" from="n20-n4" to="n53-n38"/>
<trip id="116" depart="115" from="n38-n53" to="n33-n39"/>
<trip id="117" depart="116" from="n27-n51" to="n1-n21"/>
<trip id="118" depart="119" from="n17-n1" to="n54-n19"/>
<trip id="119" depart="120" from="n39-n33" to="n54-n19"/>
<trip id="120" depart="120" from="n43-n57" to="n32-n44"/>
<trip id="121" depart="121" from="n19-n54" to="n22-n34"/>
<trip id="122" depart="122" from="n18-n2" to="n33-n45"/>
<trip id="123" depart="123" from="n44-n32" to="n51-n27"/>
<trip id="124" depart="125" from="n44-n32" to="n57-n43"/>
<trip id="125" depart="125" from="n43-n57" to="n22-n35"/>
<trip id="126" depart="126" from="n23-n5" to="n54-n19"/>
<trip id="127" depart="126" from="n43-n57" to="n51-n27"/>
<trip id="128" depart="128" from="n25-n9" to="n33-n39"/>
<trip id="129" depart="129" from="n38-n53" to="n57-n43"/>
<trip id="130" depart="133" from="n43-n57" to="n30-n42"/>
<trip id="131" depart="134" from="n19-n54" to="n22-n35"/>
<trip id="132" depart="134" from="n36-n24" to="n53-n38"/>
<trip id="133" depart="135" from="n42-n30" to="n57-n43"/>
<trip id="134" depart="135" from="n45-n33" to="n29-n41"/>
<trip id="135" depart="136" from="n40-n29" to="n54-n19"/>
<trip id="136" depart="138" from="n19-n54" to="n57-n43"/>
<trip id="137" depart="138" from="n40-n29" to="n32-n44"/>
<trip id="138" depart="143" from="n27-n51" to="n57-n43"/>
<trip id="139" depart="144" from="n18-n2" to="n1-n21"/>
<trip id="140" depart="145" from="n37-n26" to="n4-n20"/>
<trip id="141" depart="146" from="n27-n51" to="n57-n43"/>
<trip id="142" depart="148" from="n19-n54" to="n57-n43"/>
<trip id="143" depart="149" from="n23-n5" to="n51-n27"/>
<trip id="144" depart="149" from="n41-n29" to="n5-n23"/>
<trip id="145" depart="151" from="n19-n54" to="n33-n45"/>
<trip id="146" depart="157" from="n45-n33" to="n53-n38"/>
<trip id="147" depart="159" from="n19-n54" to="n32-n44"/>
<trip id="148" depart="162" from="n20-n4" to="n51-n27"/>
<trip id="149" depart="163" from="n43-n57" to="n22-n35"/>
<trip id="150" depart="164" from="n36-n24" to="n53-n38"/>
<trip id="151" depart="164" from="n18-n2" to="n33-n39"/>
<trip id="152" depart="166" from="n25-n9" to="n54-n19"/>
<trip id="153" depart="167" from="n27-n51" to="n53-n38"/>
<trip id="154" depart="169" from="n20-n4" to="n2-n18"/>
<trip id="155" depart="170" from="n43-n57" to="n1-n21"/>
<trip id="156" depart="170" from="n38-n53" to="n54-n19"/>
<trip id="157" depart="171" from="n38-n53" to="n32-n44"/>
<trip id="158" depart="171" from="n35-n22" to="n57-n43"/>
<trip id="159" depart="172" from="n19-n54" to="n33-n45"/>
<trip id="160" depart="173" from="n27-n51" to="n22-n34"/>
<trip id="161" depart="176" from="n36-n24" to="n54-n19"/>
<trip id="162" depart="178" from="n27-n51" to="n54-n19"/>
<trip id="163" depart="178" from="n20-n4" to="n57-n43"/>
<trip id="164" depart="178" from="n38-n53" to="n57-n43"/>
<trip id="165" depart="178" from="n43-n57" to="n33-n39"/>
<trip id="166" depart="179" from="n27-n51" to="n26-n37"/>
<trip id="167" depart="180" from="n19-n54" to="n57-n43"/>
<trip id="168" depart="181" from="n34-n22" to="n51-n27"/>
<trip id="169" depart="182" from="n37-n26" to="n22-n34"/>
<trip id="170" depart="182" from="n38-n53" to="n54-n19"/>
<trip id="171" depart="183" from="n19-n54" to="n57-n43"/>
<trip id="172" depart="184" from="n38-n53" to="n1-n17"/>
<trip id="173" depart="185" from="n21-n1" to="n30-n42"/>
<trip id="174" depart="186" from="n38-n53" to="n26-n37"/>
<trip id="175" depart="186" from="n38-n53" to="n51-n27"/>
<trip id="176" depart="187" from="n38-n53" to="n22-n34"/>
<trip id="177" depart="188" from="n19-n54" to="n57-n43"/>
<trip id="178" depart="188" from="n27-n51" to="n57-n43"/>
<trip id="179" depart="189" from="n34-n22" to="n54-n19"/>
<trip id="180" depart="189" from="n38-n53" to="n30-n42"/>
<trip id="181" depart="191" from="n38-n53" to="n57-n43"/>
<trip id="182" depart="191" from="n43-n57" to="n2-n18"/>
<trip id="183" depart="191" from="n43-n57" to="n51-n27"/>
<trip id="184" depart="191" from="n27-n51" to="n33-n45"/>
<trip id="185" depart="192" from="n43-n57" to="n30-n42"/>
<trip id="186" depart="193" from="n40-n29" to="n57-n43"/>
<trip id="187" depart="194" from="n34-n22" to="n53-n38"/>
<trip id="188" depart="194" from="n27-n51" to="n57-n43"/>
<trip id="189" depart="195" from="n19-n54" to="n22-n34"/>
<trip id="190" depart="196" from="n25-n9" to="n22-n35"/>
<trip id="191" depart="197" from="n36-n24" to="n53-n38"/>
<trip id="192" depart="197" from="n19-n54" to="n22-n35"/>
<trip id="193" depart="202" from="n43-n57" to="n33-n45"/>
<trip id="194" depart="202" from="n35-n22" to="n5-n23"/>
<trip id="195" depart="202" from="n18-n2" to="n54-n19"/>
<trip id="196" depart="205" from="n17-n1" to="n51-n27"/>
<trip id="197" depart="205" from="n39-n33" to="n33-n45"/>
<trip id="198" depart="206" from="n17-n1" to="n5-n23"/>
<trip id="199" depart="207" from="n43-n57" to="n2-n18"/>
<trip id="200" depart="207" from="n36-n24" to="n54-n19"/>
<trip id="201" depart="208" from="n21-n1" to="n57-n43"/>
<trip id="202" depart="210" from="n43-n57" to="n54-n19"/>
<trip id="203" depart="210" from="n38-n53" to="n54-n19"/>
<trip id="204" depart="213" from="n17-n1" to="n30-n42"/>
<trip id="205" depart="214" from="n20-n4" to="n54-n19"/>
<trip id="206" depart="215" from="n45-n33" to="n51-n27"/>
<trip id="207" depart="219" from="n19-n54" to="n57-n43"/>
<trip id="208" depart="226" from="n43-n57" to="n51-n27"/>
<trip id="209" depart="227" from="n19-n54" to="n2-n18"/>
<trip id="210" depart="231" from="n21-n1" to="n4-n20"/>
<trip id="211" depart="232" from="n27-n51" to="n57-n43"/>
<trip id="212" depart="232" from="n36-n24" to="n54-n19"/>
<trip id="213" depart="235" from="n41-n29" to="n51-n27"/>
<trip id="214" depart="236" from="n34-n22" to="n57-n43"/>
<trip id="215" depart="237" from="n19-n54" to="n57-n43"/>
<trip id="216" depart="238" from="n27-n51" to="n54-n19"/>
<trip id="217" depart="238" from="n40-n29" to="n57-n43"/>
<trip id="218" depart="239" from="n36-n24" to="n57-n43"/>
<trip id="219" depart="239" from="n38-n53" to="n54-n19"/>
<trip id="220" depart="240" from="n27-n51" to="n5-n23"/>
<trip id="221" depart="242" from="n19-n54" to="n9-n25"/>
<trip id="222" depart="243" from="n36-n24" to="n26-n37"/>
<trip id="223" depart="245" from="n27-n51" to="n1-n17"/>
<trip id="224" depart="246" from="n43-n57" to="n54-n19"/>
<trip id="225" depart="247" from="n25-n9" to="n30-n42"/>
<trip id="226" depart="248" from="n19-n54" to="n51-n27"/>
<trip id="227" depart="249" from="n18-n2" to="n54-n19"/>
<trip id="228" depart="250" from="n37-n26" to="n57-n43"/>
<trip id="229" depart="251" from="n19-n54" to="n30-n42"/>
<trip id="230" depart="252" from="n41-n29" to="n57-n43"/>
<trip id="231" depart="253" from="n34-n22" to="n1-n21"/>
<trip id="232" depart="253" from="n19-n54" to="n29-n40"/>
<trip id="233" depart="254" from="n43-n57" to="n53-n38"/>
<trip id="234" depart="254" from="n19-n54" to="n53-n38"/>
<trip id="235" depart="255" from="n37-n26" to="n54-n19"/>
<trip id="236" depart="257" from="n21-n1" to="n2-n18"/>
<trip id="237" depart="258" from="n43-n57" to="n26-n37"/>
<trip id="238" depart="262" from="n27-n51" to="n33-n39"/>
<trip id="239" depart="262" from="n34-n22" to="n1-n17"/>
<trip id="240" depart="263" from="n43-n57" to="n51-n27"/>
<trip id="241" depart="263" from="n34-n22" to="n54-n19"/>
<trip id="242" depart="263" from="n45-n33" to="n57-n43"/>
<trip id="243" depart="264" from="n27-n51" to="n57-n43"/>
<trip id="244" depart="265" from="n38-n53" to="n57-n43"/>
<trip id="245" depart="265" from="n20-n4" to="n33-n39"/>
<trip id="246" depart="266" from="n18-n2" to="n51-n27"/>
<trip id="247" depart="267" from="n38-n53" to="n51-n27"/>
<trip id="248" depart="268" from="n40-n29" to="n54-n19"/>
<trip id="249" depart="270" from="n23-n5" to="n53-n38"/>
<trip id="250" depart="270" from="n38-n53" to="n22-n35"/>
<trip id="251" depart="270" from="n39-n33" to="n51-n27"/>
<trip id="252" depart="272" from="n43-n57" to="n9-n25"/>
<trip id="253" depart="272" from="n21-n1" to="n53-n38"/>
<trip id="254" depart="272" from="n43-n57" to="n53-n38"/>
<trip id="255" depart="274" from="n45-n33" to="n54-n19"/>
<trip id="256" depart="274" from="n27-n51" to="n4-n20"/>
<trip id="257" depart="274" from="n27-n51" to="n54-n19"/>
<trip id="258" depart="277" from="n27-n51" to="n2-n18"/>
<trip id="259" depart="277" from="n43-n57" to="n29-n40"/>
<trip id="260" depart="278" from="n38-n53" to="n9-n25"/>
<trip id="261" depart="278" from="n43-n57" to="n51-n27"/>
<trip id="262" depart="279" from="n19-n54" to="n30-n42"/>
<trip id="263" depart="279" from="n27-n51" to="n57-n43"/>
<trip id="264" depart="280" from="n27-n51" to="n29-n40"/>
<trip id="265" depart="280" from="n18-n2" to="n57-n43"/>
<trip id="266" depart="283" from="n43-n57" to="n51-n27"/>
<trip id="267" depart="283" from="n27-n51" to="n57-n43"/>
<trip id="268" depart="285" from="n39-n33" to="n4-n20"/>
<trip id="269" depart="286" from="n19-n54" to="n24-n36"/>
<trip id="270" depart="287" from="n34-n22" to="n54-n19"/>
<trip id="271" depart="287" from="n19-n54" to="n1-n17"/>
<trip id="272" depart="288" from="n17-n1" to="n2-n18"/>
<trip id="273" depart="288" from="n17-n1" to="n57-n43"/>
<trip id="274" depart="289" from="n19-n54" to="n32-n44"/>
<trip id="275" depart="289" from="n19-n54" to="n5-n23"/>
<trip id="276" depart="290" from="n27-n51" to="n57-n43"/>
<trip id="277" depart="290" from="n41-n29" to="n5-n23"/>
<trip id="278" depart="290" from="n38-n53" to="n57-n43"/>
<trip id="279" depart="291" from="n42-n30" to="n29-n41"/>
<trip id="280" depart="293" from="n19-n54" to="n51-n27"/>
<trip id="281" depart="295" from="n23-n5" to="n51-n27"/>
<trip id="282" depart="296" from="n38-n53" to="n54-n19"/>
<trip id="283" depart="297" from="n38-n53" to="n51-n27"/>
<trip id="284" depart="300" from="n36-n24" to="n51-n27"/>
<trip id="285" depart="301" from="n43-n57" to="n53-n38"/>
<trip id="286" depart="301" from="n25-n9" to="n4-n20"/>
<trip id="287" depart="302" from="n43-n57" to="n54-n19"/>
<trip id="288" depart="302" from="n38-n53" to="n54-n19"/>
<trip id="289" depart="302" from="n40-n29" to="n33-n39"/>
<trip id="290" depart="305" from="n39-n33" to="n57-n43"/>
<trip id="291" depart="308" from="n36-n24" to="n22-n34"/>
<trip id="292" depart="309" from="n37-n26" to="n57-n43"/>
<trip id="293" depart="310" from="n19-n54" to="n32-n44"/>
<trip id="294" depart="313" from="n43-n57" to="n51-n27"/>
<trip id="295" depart="314" from="n43-n57" to="n24-n36"/>
<trip id="296" depart="314" from="n21-n1" to="n29-n41"/>
<trip id="297" depart="315" from="n43-n57" to="n22-n35"/>
<trip id="298" depart="316" from="n39-n33" to="n30-n42"/>
<trip id="299" depart="316" from="n45-n33" to="n2-n18"/>
<trip id="300" depart="317" from="n41-n29" to="n54-n19"/>
<trip id="301" depart="317" from="n43-n57" to="n26-n37"/>
<trip id="302" depart="319" from="n21-n1" to="n2-n18"/>
<trip id="303" depart="320" from="n38-n53" to="n51-n27"/>
<trip id="304" depart="322" from="n21-n1" to="n30-n42"/>
<trip id="305" depart="323" from="n38-n53" to="n29-n40"/>
<trip id="306" depart="323" from="n43-n57" to="n9-n25"/>
<trip id="307" depart="324" from="n19-n54" to="n24-n36"/>
<trip id="308" depart="324" from="n43-n57" to="n51-n27"/>
<trip id="309" depart="324" from="n20-n4" to="n54-n19"/>
<trip id="310" depart="325" from="n37-n26" to="n9-n25"/>
<trip id="311" depart="325" from="n35-n22" to="n29-n41"/>
<trip id="312" depart="325" from="n27-n51" to="n5-n23"/>
<trip id="313" depart="326" from="n19-n54" to="n53-n38"/>
<trip id="314" depart="327" from="n38-n53" to="n4-n20"/>
<trip id="315" depart="327" from="n38-n53" to="n57-n43"/>
<trip id="316" depart="331" from="n27-n51" to="n29-n41"/>
<trip id="317" depart="335" from="n38-n53" to="n57-n43"/>
<trip id="318" depart="336" from="n43-n57" to="n53-n38"/>
<trip id="319" depart="337" from="n38-n53" to="n57-n43"/>
<trip id="320" depart="338" from="n38-n53" to="n54-n19"/>
<trip id="321" depart="340" from="n27-n51" to="n1-n21"/>
<trip id="322" depart="341" from="n43-n57" to="n29-n41"/>
<trip id="323" depart="341" from="n43-n57" to="n24-n36"/>
<trip id="324" depart="341" from="n40-n29" to="n24-n36"/>
<trip id="325" depart="343" from="n42-n30" to="n33-n39"/>
<trip id="326" depart="343" from="n36-n24" to="n51-n27"/>
<trip id="327" depart="343" from="n44-n32" to="n54-n19"/>
<trip id="328" depart="344" from="n38-n53" to="n54-n19"/>
<trip id="329" depart="345" from="n19-n54" to="n4-n20"/>
<trip id="330" depart="345" from="n19-n54" to="n9-n25"/>
<trip id="331" depart="348" from="n27-n51" to="n32-n44"/>
<trip id="332" depart="348" from="n35-n22" to="n32-n44"/>
<trip id="333" depart="348" from="n37-n26" to="n1-n21"/>
<trip id="334" depart="350" from="n34-n22" to="n51-n27"/>
<trip id="335" depart="352" from="n43-n57" to="n5-n23"/>
<trip id="336" depart="354" from="n27-n51" to="n57-n43"/>
<trip id="337" depart="354" from="n38-n53" to="n57-n43"/>
<trip id="338" depart="355" from="n41-n29" to="n53-n38"/>
<trip id="339" depart="357" from="n43-n57" to="n51-n27"/>
<trip id="340" depart="358" from="n38-n53" to="n2-n18"/>
<trip id="341" depart="360" from="n19-n54" to="n57-n43"/>
<trip id="342" depart="360" from="n27-n51" to="n5-n23"/>
<trip id="343" depart="363" from="n19-n54" to="n5-n23"/>
<trip id="344" depart="364" from="n38-n53" to="n32-n44"/>
<trip id="345" depart="364" from="n23-n5" to="n53-n38"/>
<trip id="346" depart="368" from="n34-n22" to="n30-n42"/>
<trip id="347" depart="370" from="n38-n53" to="n54-n19"/>
<trip id="348" depart="371" from="n42-n30" to="n9-n25"/>
<trip id="349" depart="371" from="n44-n32" to="n54-n19"/>
<trip id="350" depart="372" from="n27-n51" to="n22-n34"/>
<trip id="351" depart="372" from="n19-n54" to="n51-n27"/>
<trip id="352" depart="373" from="n38-n53" to="n32-n44"/>
<trip id="353" depart="373" from="n43-n57" to="n26-n37"/>
<trip id="354" depart="374" from="n19-n54" to="n51-n27"/>
<trip id="355" depart="374" from="n43-n57" to="n51-n27"/>
<trip id="356" depart="376" from="n21-n1" to="n4-n20"/>
<trip id="357" depart="380" from="n45-n33" to="n5-n23"/>
<trip id="358" depart="381" from="n27-n51" to="n57-n43"/>
<trip id="359" depart="382" from="n39-n33" to="n26-n37"/>
<trip id="360" depart="384" from="n19-n54" to="n29-n40"/>
<trip id="361" depart="388" from="n27-n51" to="n53-n38"/>
<trip id="362" depart="388" from="n42-n30" to="n29-n40"/>
<trip id="363" depart="389" from="n43-n57" to="n4-n20"/>
<trip id="364" depart="394" from="n41-n29" to="n57-n43"/>
<trip id="365" depart="395" from="n45-n33" to="n53-n38"/>
<trip id="366" depart="395" from="n19-n54" to="n53-n38"/>
<trip id="367" depart="396" from="n41-n29" to="n57-n43"/>
<trip id="368" depart="401" from="n37-n26" to="n2-n18"/>
<trip id="369" depart="401" from="n17-n1" to="n51-n27"/>
<trip id="370" depart="402" from="n37-n26" to="n22-n35"/>
<trip id="371" depart="402" from="n43-n57" to="n54-n19"/>
<trip id="372" depart="404" from="n40-n29" to="n53-n38"/>
<trip id="373" depart="405" from="n27-n51" to="n54-n19"/>
<trip id="374" depart="406" from="n17-n1" to="n4-n20"/>
<trip id="375" depart="407" from="n25-n9" to="n51-n27"/>
<trip id="376" depart="408" from="n43-n57" to="n53-n38"/>
<trip id="377" depart="409" from="n19-n54" to="n51-n27"/>
<trip id="378" depart="409" from="n17-n1" to="n53-n38"/>
<trip id="379" depart="409" from="n43-n57" to="n54-n19"/>
<trip id="380" depart="413" from="n25-n9" to="n1-n21"/>
<trip id="381" depart="413" from="n19-n54" to="n57-n43"/>
<trip id="382" depart="414" from="n43-n57" to="n5-n23"/>
<trip id="383" depart="415" from="n27-n51" to="n53-n38"/>
<trip id="384" depart="417" from="n27-n51" to="n33-n45"/>
<trip id="385" depart="418" from="n19-n54" to="n33-n45"/>
<trip id="386" depart="418" from="n45-n33" to="n9-n25"/>
<trip id="387" depart="421" from="n18-n2" to="n1-n17"/>
<trip id="388" depart="422" from="n43-n57" to="n29-n41"/>
<trip id="389" depart="422" from="n25-n9" to="n22-n35"/>
<trip id="390" depart="423" from="n38-n53" to="n51-n27"/>
<trip id="391" depart="423" from="n43-n57" to="n33-n39"/>
<trip id="392" depart="423" from="n45-n33" to="n4-n20"/>
<trip id="393" depart="424" from="n36-n24" to="n33-n39"/>
<trip id="394" depart="425" from="n27-n51" to="n53-n38"/>
<trip id="395" depart="426" from="n27-n51" to="n9-n25"/>
<trip id="396" depart="426" from="n20-n4" to="n29-n41"/>
<trip id="397" depart="426" from="n44-n32" to="n57-n43"/>
<trip id="398" depart="426" from="n23-n5" to="n54-n19"/>
<trip id="399" depart="428" from="n27-n51" to="n57-n43"/>
<trip id="400" depart="429" from="n19-n54" to="n1-n17"/>
<trip id="401" depart="430" from="n39-n33" to="n53-n38"/>
<trip id="402" depart="431" from="n45-n33" to="n54-n19"/>
<trip id="403" depart="432" from="n17-n1" to="n4-n20"/>
<trip id="404" depart="433" from="n18-n2" to="n51-n27"/>
<trip id="405" depart="433" from="n19-n54" to="n29-n41"/>
<trip id="406" depart="434" from="n27-n51" to="n22-n35"/>
<trip id="407" depart="435" from="n39-n33" to="n2-n18"/>
<trip id="408" depart="436" from="n19-n54" to="n1-n21"/>
<trip id="409" depart="436" from="n19-n54" to="n29-n40"/>
<trip id="410" depart="437" from="n27-n51" to="n24-n36"/>
<trip id="411" depart="437" from="n38-n53" to="n51-n27"/>
<trip id="412" depart="438" from="n44-n32" to="n51-n27"/>
<trip id="413" depart="438" from="n20-n4" to="n29-n40"/>
<trip id="414" depart="438" from="n17-n1" to="n54-n19"/>
<trip id="415" depart="439" from="n39-n33" to="n57-n43"/>
<trip id="416" depart="439" from="n21-n1" to="n9-n25"/>
<trip id="417" depart="439" from="n27-n51" to="n4-n20"/>
<trip id="418" depart="441" from="n19-n54" to="n32-n44"/>
<trip id="419" depart="441" from="n19-n54" to="n2-n18"/>
<trip id="420" depart="442" from="n27-n51" to="n33-n45"/>
<trip id="421" depart="445" from="n43-n57" to="n22-n34"/>
<trip id="422" depart="445" from="n40-n29" to="n57-n43"/>
<trip id="423" depart="447" from="n39-n33" to="n26-n37"/>
<trip id="424" depart="448" from="n19-n54" to="n9-n25"/>
<trip id="425" depart="448" from="n37-n26" to="n1-n17"/>
<trip id="426" depart="449" from="n18-n2" to="n54-n19"/>
<trip id="427" depart="449" from="n19-n54" to="n51-n27"/>
<trip id="428" depart="449" from="n21-n1" to="n22-n34"/>
<trip id="429" depart="453" from="n34-n22" to="n33-n45"/>
<trip id="430" depart="454" from="n19-n54" to="n9-n25"/>
<trip id="431" depart="454" from="n35-n22" to="n5-n23"/>
<trip id="432" depart="454" from="n34-n22" to="n33-n39"/>
<trip id="433" depart="454" from="n43-n57" to="n51-n27"/>
<trip id="434" depart="456" from="n34-n22" to="n54-n19"/>
<trip id="435" depart="457" from="n27-n51" to="n9-n25"/>
<trip id="436" depart="458" from="n27-n51" to="n1-n17"/>
<trip id="437" depart="460" from="n45-n33" to="n54-n19"/>
<trip id="438" depart="461" from="n19-n54" to="n22-n35"/>
<trip id="439" depart="461" from="n37-n26" to="n57-n43"/>
<trip id="440" depart="463" from="n34-n22" to="n54-n19"/>
<trip id="441" depart="464" from="n45-n33" to="n54-n19"/>
<trip id="442" depart="466" from="n41-n29" to="n33-n39"/>
<trip id="443" depart="467" from="n44-n32" to="n54-n19"/>
<trip id="444" depart="467" from="n40-n29" to="n33-n45"/>
<trip id="445" depart="467" from="n41-n29" to="n53-n38"/>
<trip id="446" depart="468" from="n40-n29" to="n24-n36"/>
<trip id="447" depart="470" from="n43-n57" to="n51-n27"/>
<trip id="448" depart="470" from="n38-n53" to="n57-n43"/>
<trip id="449" depart="472" from="n38-n53" to="n29-n40"/>
<trip id="450" depart="475" from="n37-n26" to="n33-n39"/>
<trip id="451" depart="475" from="n27-n51" to="n22-n34"/>
<trip id="452" depart="476" from="n21-n1" to="n24-n36"/>
<trip id="453" depart="476" from="n34-n22" to="n57-n43"/>
<trip id="454" depart="477" from="n38-n53" to="n1-n21"/>
<trip id="455" depart="478" from="n34-n22" to="n5-n23"/>
<trip id="456" depart="479" from="n41-n29" to="n57-n43"/>
<trip id="457" depart="479" from="n37-n26" to="n53-n38"/>
<trip id="458" depart="480" from="n19-n54" to="n5-n23"/>
<trip id="459" depart="481" from="n43-n57" to="n53-n38"/>
<trip id="460" depart="482" from="n43-n57" to="n33-n45"/>
<trip id="461" depart="482" from="n27-n51" to="n57-n43"/>
<trip id="462" depart="484" from="n27-n51" to="n29-n41"/>
<trip id="463" depart="486" from="n27-n51" to="n57-n43"/>
<trip id="464" depart="486" from="n19-n54" to="n53-n38"/>
<trip id="465" depart="488" from="n27-n51" to="n53-n38"/>
<trip id="466" depart="493" from="n43-n57" to="n53-n38"/>
<trip id="467" depart="494" from="n43-n57" to="n53-n38"/>
<trip id="468" depart="495" from="n42-n30" to="n54-n19"/>
<trip id="469" depart="496" from="n25-n9" to="n54-n19"/>
<trip id="470" depart="497" from="n27-n51" to="n57-n43"/>
<trip id="471" depart="498" from="n25-n9" to="n5-n23"/>
<trip id="472" depart="502" from="n43-n57" to="n30-n42"/>
<trip id="473" depart="505" from="n38-n53" to="n54-n19"/>
<trip id="474" depart="506" from="n43-n57" to="n54-n19"/>
<trip id="475" depart="508" from="n43-n57" to="n5-n23"/>
<trip id="476" depart="509" from="n35-n22" to="n57-n43"/>
<trip id="477" depart="509" from="n25-n9" to="n54-n19"/>
<trip id="478" depart="511" from="n19-n54" to="n33-n39"/>
<trip id="479" depart="511" from="n23-n5" to="n1-n21"/>
<trip id="480" depart="511" from="n19-n54" to="n53-n38"/>
<trip id="481" depart="511" from="n39-n33" to="n54-n19"/>
<trip id="482" depart="512" from="n43-n57" to="n51-n27"/>
<trip id="483" depart="512" from="n19-n54" to="n2-n18"/>
<trip id="484" depart="513" from="n35-n22" to="n54-n19"/>
<trip id="485" depart="517" from="n35-n22" to="n54-n19"/>
<trip id="486" depart="517" from="n43-n57" to="n29-n40"/>
<trip id="487" depart="518" from="n45-n33" to="n57-n43"/>
<trip id="488" depart="518" from="n19-n54" to="n57-n43"/>
<trip id="489" depart="519" from="n41-n29" to="n57-n43"/>
<trip id="490" depart="521" from="n35-n22" to="n51-n27"/>
<trip id="491" depart="524" from="n37-n26" to="n53-n38"/>
<trip id="492" depart="525" from="n38-n53" to="n57-n43"/>
<trip id="493" depart="526" from="n45-n33" to="n57-n43"/>
<trip id="494" depart="527" from="n45-n33" to="n9-n25"/>
<trip id="495" depart="529" from="n34-n22" to="n9-n25"/>
<trip id="496" depart="530" from="n41-n29" to="n33-n39"/>
<trip id="497" depart="530" from="n21-n1" to="n29-n41"/>
<trip id="498" depart="531" from="n44-n32" to="n33-n45"/>
<trip id="499" depart="531" from="n43-n57" to="n51-n27"/>
<trip id="500" depart="534" from="n38-n53" to="n1-n21"/>
<trip id="501" depart="534" from="n18-n2" to="n1-n21"/>
<trip id="502" depart="536" from="n17-n1" to="n30-n42"/>
<trip id="503" depart="537" from="n39-n33" to="n53-n38"/>
<trip id="504" depart="538" from="n45-n33" to="n22-n34"/>
<trip id="505" depart="539" from="n38-n53" to="n1-n17"/>
<trip id="506" depart="541" from="n43-n57" to="n53-n38"/>
<trip id="507" depart="542" from="n23-n5" to="n29-n40"/>
<trip id="508" depart="542" from="n43-n57" to="n24-n36"/>
<trip id="509" depart="543" from="n38-n53" to="n33-n39"/>
<trip id="510" depart="547" from="n40-n29" to="n2-n18"/>
<trip id="511" depart="549" from="n41-n29" to="n32-n44"/>
<trip id="512" depart="552" from="n17-n1" to="n51-n27"/>
<trip id="513" depart="553" from="n42-n30" to="n53-n38"/>
<trip id="514" depart="555" from="n27-n51" to="n30-n42"/>
<trip id="515" depart="557" from="n23-n5" to="n29-n41"/>
<trip id="516" depart="559" from="n23-n5" to="n57-n43"/>
<trip id="517" depart="559" from="n27-n51" to="n57-n43"/>
<trip id="518" depart="560" from="n41-n29" to="n57-n43"/>
<trip id="519" depart="561" from="n44-n32" to="n26-n37"/>
<trip id="520" depart="561" from="n38-n53" to="n26-n37"/>