<routes>
    <vType accel="1.0" decel="5.0" id="Car" jmIgnoreKeepClearTime="100.0" maxSpeed="30" length="3" />
        
    <!--emergencyDecel="0.0"-->
    <trip id="0" depart="0" from="n41-n29" to="n51-n27"/>
<trip id="1" depart="2" from="n38-n53" to="n2-n18"/>
<trip id="2" depart="8" from="n19-n54" to="n2-n18"/>
<trip id="3" depart="11" from="n35-n22" to="n1-n17"/>
<trip id="4" depart="13" from="n19-n54" to="n1-n21"/>
<trip id="5" depart="16" from="n38-n53" to="n30-n42"/>
<trip id="6" depart="16" from="n19-n54" to="n51-n27"/>
<trip id="7" depart="17" from="n19-n54" to="n57-n43"/>
<trip id="8" depart="19" from="n27-n51" to="n22-n34"/>
<trip id="9" depart="20" from="n40-n29" to="n54-n19"/>
<trip id="10" depart="21" from="n18-n2" to="n57-n43"/>
<trip id="11" depart="22" from="n34-n22" to="n51-n27"/>
<trip id="12" depart="22" from="n25-n9" to="n57-n43"/>
<trip id="13" depart="26" from="n43-n57" to="n1-n17"/>
<trip id="14" depart="26" from="n20-n4" to="n54-n19"/>
<trip id="15" depart="29" from="n43-n57" to="n33-n45"/>
<trip id="16" depart="30" from="n36-n24" to="n53-n38"/>
<trip id="17" depart="32" from="n34-n22" to="n32-n44"/>
<trip id="18" depart="35" from="n18-n2" to="n51-n27"/>
<trip id="19" depart="40" from="n41-n29" to="n54-n19"/>
<trip id="20" depart="43" from="n20-n4" to="n33-n39"/>
<trip id="21" depart="43" from="n43-n57" to="n32-n44"/>
<trip id="22" depart="48" from="n39-n33" to="n29-n41"/>
<trip id="23" depart="49" from="n34-n22" to="n51-n27"/>
<trip id="24" depart="53" from="n19-n54" to="n57-n43"/>
<trip id="25" depart="54" from="n27-n51" to="n57-n43"/>
<trip id="26" depart="54" from="n27-n51" to="n26-n37"/>
<trip id="27" depart="56" from="n43-n57" to="n54-n19"/>
<trip id="28" depart="64" from="n34-n22" to="n54-n19"/>
<trip id="29" depart="66" from="n25-n9" to="n22-n35"/>
<trip id="30" depart="70" from="n38-n53" to="n9-n25"/>
<trip id="31" depart="70" from="n19-n54" to="n24-n36"/>
<trip id="32" depart="71" from="n27-n51" to="n33-n45"/>
<trip id="33" depart="73" from="n19-n54" to="n26-n37"/>
<trip id="34" depart="73" from="n34-n22" to="n54-n19"/>
<trip id="35" depart="73" from="n18-n2" to="n4-n20"/>
<trip id="36" depart="78" from="n41-n29" to="n22-n34"/>
<trip id="37" depart="85" from="n19-n54" to="n22-n35"/>
<trip id="38" depart="89" from="n38-n53" to="n22-n34"/>
<trip id="39" depart="90" from="n43-n57" to="n30-n42"/>
<trip id="40" depart="92" from="n40-n29" to="n33-n45"/>
<trip id="41" depart="93" from="n43-n57" to="n22-n34"/>
<trip id="42" depart="95" from="n41-n29" to="n53-n38"/>
<trip id="43" depart="96" from="n27-n51" to="n2-n18"/>
<trip id="44" depart="97" from="n37-n26" to="n57-n43"/>
<trip id="45" depart="98" from="n19-n54" to="n53-n38"/>
<trip id="46" depart="99" from="n20-n4" to="n29-n41"/>
<trip id="47" depart="100" from="n39-n33" to="n54-n19"/>
<trip id="48" depart="100" from="n23-n5" to="n53-n38"/>
<trip id="49" depart="101" from="n25-n9" to="n26-n37"/>
<trip id="50" depart="102" from="n20-n4" to="n53-n38"/>
<trip id="51" depart="106" from="n40-n29" to="n5-n23"/>
<trip id="52" depart="108" from="n43-n57" to="n53-n38"/>
<trip id="53" depart="110" from="n20-n4" to="n1-n17"/>
<trip id="54" depart="110" from="n27-n51" to="n4-n20"/>
<trip id="55" depart="111" from="n43-n57" to="n33-n39"/>
<trip id="56" depart="111" from="n27-n51" to="n26-n37"/>
<trip id="57" depart="114" from="n45-n33" to="n53-n38"/>
<trip id="58" depart="115" from="n35-n22" to="n32-n44"/>
<trip id="59" depart="116" from="n43-n57" to="n51-n27"/>
<trip id="60" depart="118" from="n37-n26" to="n24-n36"/>
<trip id="61" depart="120" from="n27-n51" to="n1-n21"/>
<trip id="62" depart="124" from="n19-n54" to="n51-n27"/>
<trip id="63" depart="126" from="n43-n57" to="n53-n38"/>
<trip id="64" depart="126" from="n27-n51" to="n53-n38"/>
<trip id="65" depart="128" from="n19-n54" to="n1-n17"/>
<trip id="66" depart="137" from="n43-n57" to="n33-n39"/>
<trip id="67" depart="139" from="n43-n57" to="n22-n35"/>
<trip id="68" depart="139" from="n41-n29" to="n30-n42"/>
<trip id="69" depart="140" from="n38-n53" to="n33-n45"/>
<trip id="70" depart="141" from="n43-n57" to="n54-n19"/>
<trip id="71" depart="145" from="n43-n57" to="n5-n23"/>
<trip id="72" depart="149" from="n27-n51" to="n57-n43"/>
<trip id="73" depart="152" from="n34-n22" to="n57-n43"/>
<trip id="74" depart="153" from="n35-n22" to="n1-n21"/>
<trip id="75" depart="155" from="n39-n33" to="n51-n27"/>
<trip id="76" depart="155" from="n36-n24" to="n32-n44"/>
<trip id="77" depart="157" from="n25-n9" to="n53-n38"/>
<trip id="78" depart="161" from="n18-n2" to="n29-n41"/>
<trip id="79" depart="163" from="n37-n26" to="n32-n44"/>
<trip id="80" depart="165" from="n19-n54" to="n53-n38"/>
<trip id="81" depart="165" from="n19-n54" to="n30-n42"/>
<trip id="82" depart="169" from="n37-n26" to="n54-n19"/>
<trip id="83" depart="169" from="n45-n33" to="n32-n44"/>
<trip id="84" depart="169" from="n27-n51" to="n33-n45"/>
<trip id="85" depart="170" from="n21-n1" to="n53-n38"/>
<trip id="86" depart="171" from="n35-n22" to="n29-n40"/>
<trip id="87" depart="172" from="n23-n5" to="n54-n19"/>
<trip id="88" depart="174" from="n18-n2" to="n57-n43"/>
<trip id="89" depart="174" from="n35-n22" to="n54-n19"/>
<trip id="90" depart="175" from="n17-n1" to="n24-n36"/>
<trip id="91" depart="175" from="n38-n53" to="n54-n19"/>
<trip id="92" depart="177" from="n18-n2" to="n51-n27"/>
<trip id="93" depart="177" from="n27-n51" to="n4-n20"/>
<trip id="94" depart="178" from="n25-n9" to="n53-n38"/>
<trip id="95" depart="179" from="n36-n24" to="n57-n43"/>
<trip id="96" depart="183" from="n36-n24" to="n54-n19"/>
<trip id="97" depart="188" from="n19-n54" to="n57-n43"/>
<trip id="98" depart="190" from="n20-n4" to="n30-n42"/>
<trip id="99" depart="191" from="n17-n1" to="n54-n19"/>
<trip id="100" depart="192" from="n38-n53" to="n57-n43"/>
<trip id="101" depart="193" from="n19-n54" to="n29-n40"/>
<trip id="102" depart="194" from="n25-n9" to="n22-n35"/>
<trip id="103" depart="195" from="n18-n2" to="n9-n25"/>
<trip id="104" depart="197" from="n27-n51" to="n54-n19"/>
<trip id="105" depart="203" from="n19-n54" to="n53-n38"/>
<trip id="106" depart="207" from="n19-n54" to="n4-n20"/>
<trip id="107" depart="208" from="n38-n53" to="n51-n27"/>
<trip id="108" depart="214" from="n44-n32" to="n57-n43"/>
<trip id="109" depart="216" from="n43-n57" to="n22-n34"/>
<trip id="110" depart="217" from="n38-n53" to="n51-n27"/>
<trip id="111" depart="217" from="n43-n57" to="n9-n25"/>
<trip id="112" depart="217" from="n19-n54" to="n24-n36"/>
<trip id="113" depart="218" from="n39-n33" to="n54-n19"/>
<trip id="114" depart="219" from="n35-n22" to="n33-n45"/>
<trip id="115" depart="221" from="n18-n2" to="n1-n21"/>
<trip id="116" depart="223" from="n18-n2" to="n30-n42"/>
<trip id="117" depart="228" from="n43-n57" to="n51-n27"/>
<trip id="118" depart="230" from="n43-n57" to="n24-n36"/>
<trip id="119" depart="232" from="n42-n30" to="n54-n19"/>
<trip id="120" depart="235" from="n36-n24" to="n30-n42"/>
<trip id="121" depart="237" from="n43-n57" to="n24-n36"/>
<trip id="122" depart="239" from="n38-n53" to="n1-n21"/>
<trip id="123" depart="241" from="n27-n51" to="n22-n35"/>
<trip id="124" depart="244" from="n36-n24" to="n29-n40"/>
<trip id="125" depart="246" from="n19-n54" to="n51-n27"/>
<trip id="126" depart="247" from="n38-n53" to="n1-n17"/>
<trip id="127" depart="251" from="n43-n57" to="n1-n21"/>
<trip id="128" depart="258" from="n37-n26" to="n51-n27"/>
<trip id="129" depart="259" from="n42-n30" to="n33-n45"/>
<trip id="130" depart="261" from="n38-n53" to="n22-n34"/>
<trip id="131" depart="264" from="n20-n4" to="n54-n19"/>
<trip id="132" depart="265" from="n43-n57" to="n22-n34"/>
<trip id="133" depart="267" from="n43-n57" to="n53-n38"/>
<trip id="134" depart="271" from="n43-n57" to="n51-n27"/>
<trip id="135" depart="273" from="n27-n51" to="n5-n23"/>
<trip id="136" depart="275" from="n37-n26" to="n24-n36"/>
<trip id="137" depart="277" from="n37-n26" to="n22-n34"/>
<trip id="138" depart="278" from="n35-n22" to="n5-n23"/>
<trip id="139" depart="282" from="n45-n33" to="n57-n43"/>
<trip id="140" depart="284" from="n18-n2" to="n53-n38"/>
<trip id="141" depart="287" from="n27-n51" to="n53-n38"/>
<trip id="142" depart="289" from="n44-n32" to="n54-n19"/>
<trip id="143" depart="300" from="n19-n54" to="n24-n36"/>
<trip id="144" depart="300" from="n38-n53" to="n32-n44"/>
<trip id="145" depart="301" from="n43-n57" to="n53-n38"/>
<trip id="146" depart="302" from="n19-n54" to="n51-n27"/>
<trip id="147" depart="303" from="n19-n54" to="n22-n34"/>
<trip id="148" depart="303" from="n23-n5" to="n32-n44"/>
<trip id="149" depart="304" from="n38-n53" to="n2-n18"/>
<trip id="150" depart="304" from="n43-n57" to="n54-n19"/>
<trip id="151" depart="305" from="n19-n54" to="n51-n27"/>
<trip id="152" depart="305" from="n25-n9" to="n22-n34"/>
<trip id="153" depart="306" from="n45-n33" to="n5-n23"/>
<trip id="154" depart="309" from="n42-n30" to="n57-n43"/>
<trip id="155" depart="312" from="n42-n30" to="n9-n25"/>
<trip id="156" depart="318" from="n43-n57" to="n2-n18"/>
<trip id="157" depart="320" from="n43-n57" to="n29-n40"/>
<trip id="158" depart="322" from="n43-n57" to="n22-n35"/>
<trip id="159" depart="323" from="n19-n54" to="n51-n27"/>
<trip id="160" depart="323" from="n27-n51" to="n54-n19"/>
<trip id="161" depart="327" from="n45-n33" to="n54-n19"/>
<trip id="162" depart="329" from="n41-n29" to="n5-n23"/>
<trip id="163" depart="332" from="n19-n54" to="n22-n34"/>
<trip id="164" depart="336" from="n43-n57" to="n53-n38"/>
<trip id="165" depart="342" from="n19-n54" to="n9-n25"/>
<trip id="166" depart="342" from="n38-n53" to="n51-n27"/>
<trip id="167" depart="342" from="n34-n22" to="n33-n39"/>
<trip id="168" depart="344" from="n43-n57" to="n29-n40"/>
<trip id="169" depart="345" from="n27-n51" to="n54-n19"/>
<trip id="170" depart="349" from="n45-n33" to="n22-n34"/>
<trip id="171" depart="352" from="n34-n22" to="n57-n43"/>
<trip id="172" depart="356" from="n35-n22" to="n29-n40"/>
<trip id="173" depart="356" from="n19-n54" to="n53-n38"/>
<trip id="174" depart="357" from="n27-n51" to="n54-n19"/>
<trip id="175" depart="357" from="n27-n51" to="n54-n19"/>
<trip id="176" depart="357" from="n43-n57" to="n4-n20"/>
<trip id="177" depart="361" from="n27-n51" to="n53-n38"/>
<trip id="178" depart="362" from="n45-n33" to="n33-n39"/>
<trip id="179" depart="362" from="n19-n54" to="n22-n35"/>
<trip id="180" depart="368" from="n25-n9" to="n51-n27"/>
<trip id="181" depart="369" from="n20-n4" to="n2-n18"/>
<trip id="182" depart="372" from="n37-n26" to="n53-n38"/>
<trip id="183" depart="372" from="n43-n57" to="n53-n38"/>
<trip id="184" depart="374" from="n18-n2" to="n33-n45"/>
<trip id="185" depart="379" from="n42-n30" to="n53-n38"/>
<trip id="186" depart="379" from="n38-n53" to="n54-n19"/>
<trip id="187" depart="380" from="n42-n30" to="n54-n19"/>
<trip id="188" depart="382" from="n43-n57" to="n29-n40"/>
<trip id="189" depart="385" from="n34-n22" to="n54-n19"/>
<trip id="190" depart="387" from="n21-n1" to="n53-n38"/>
<trip id="191" depart="389" from="n38-n53" to="n57-n43"/>
<trip id="192" depart="389" from="n19-n54" to="n33-n45"/>
<trip id="193" depart="391" from="n43-n57" to="n9-n25"/>
<trip id="194" depart="393" from="n44-n32" to="n51-n27"/>
<trip id="195" depart="397" from="n17-n1" to="n30-n42"/>
<trip id="196" depart="399" from="n38-n53" to="n5-n23"/>
<trip id="197" depart="405" from="n34-n22" to="n2-n18"/>
<trip id="198" depart="406" from="n42-n30" to="n54-n19"/>
<trip id="199" depart="407" from="n19-n54" to="n5-n23"/>
<trip id="200" depart="408" from="n19-n54" to="n51-n27"/>
<trip id="201" depart="408" from="n43-n57" to="n1-n17"/>
<trip id="202" depart="411" from="n25-n9" to="n57-n43"/>
<trip id="203" depart="412" from="n27-n51" to="n54-n19"/>
<trip id="204" depart="417" from="n21-n1" to="n24-n36"/>
<trip id="205" depart="418" from="n40-n29" to="n26-n37"/>
<trip id="206" depart="419" from="n42-n30" to="n1-n21"/>
<trip id="207" depart="421" from="n43-n57" to="n26-n37"/>
<trip id="208" depart="422" from="n23-n5" to="n32-n44"/>
<trip id="209" depart="422" from="n40-n29" to="n54-n19"/>
<trip id="210" depart="423" from="n41-n29" to="n53-n38"/>
<trip id="211" depart="427" from="n19-n54" to="n1-n17"/>
<trip id="212" depart="431" from="n25-n9" to="n5-n23"/>
<trip id="213" depart="431" from="n17-n1" to="n51-n27"/>
<trip id="214" depart="432" from="n41-n29" to="n53-n38"/>
<trip id="215" depart="441" from="n19-n54" to="n53-n38"/>
<trip id="216" depart="445" from="n21-n1" to="n54-n19"/>
<trip id="217" depart="447" from="n35-n22" to="n29-n41"/>
<trip id="218" depart="447" from="n43-n57" to="n1-n17"/>
<trip id="219" depart="449" from="n19-n54" to="n57-n43"/>
<trip id="220" depart="452" from="n36-n24" to="n2-n18"/>
<trip id="221" depart="454" from="n27-n51" to="n33-n39"/>
<trip id="222" depart="455" from="n19-n54" to="n4-n20"/>
<trip id="223" depart="456" from="n17-n1" to="n29-n40"/>
<trip id="224" depart="466" from="n37-n26" to="n2-n18"/>
<trip id="225" depart="467" from="n19-n54" to="n2-n18"/>
<trip id="226" depart="468" from="n35-n22" to="n29-n41"/>
<trip id="227" depart="471" from="n21-n1" to="n54-n19"/>
<trip id="228" depart="472" from="n17-n1" to="n22-n35"/>
<trip id="229" depart="473" from="n17-n1" to="n57-n43"/>
<trip id="230" depart="478" from="n40-n29" to="n4-n20"/>
<trip id="231" depart="478" from="n27-n51" to="n57-n43"/>
<trip id="232" depart="485" from="n18-n2" to="n53-n38"/>
<trip id="233" depart="488" from="n27-n51" to="n5-n23"/>
<trip id="234" depart="491" from="n43-n57" to="n9-n25"/>
<trip id="235" depart="493" from="n27-n51" to="n53-n38"/>
<trip id="236" depart="494" from="n35-n22" to="n57-n43"/>
<trip id="237" depart="497" from="n19-n54" to="n57-n43"/>
<trip id="238" depart="503" from="n25-n9" to="n22-n35"/>
<trip id="239" depart="503" from="n21-n1" to="n53-n38"/>
<trip id="240" depart="507" from="n19-n54" to="n33-n39"/>
<trip id="241" depart="508" from="n35-n22" to="n2-n18"/>
<trip id="242" depart="512" from="n43-n57" to="n53-n38"/>
<trip id="243" depart="512" from="n36-n24" to="n54-n19"/>
<trip id="244" depart="513" from="n27-n51" to="n9-n25"/>
<trip id="245" depart="515" from="n27-n51" to="n54-n19"/>
<trip id="246" depart="522" from="n19-n54" to="n51-n27"/>
<trip id="247" depart="523" from="n21-n1" to="n22-n35"/>
<trip id="248" depart="526" from="n21-n1" to="n53-n38"/>
<trip id="249" depart="528" from="n27-n51" to="n54-n19"/>
<trip id="250" depart="532" from="n38-n53" to="n57-n43"/>
<trip id="251" depart="535" from="n27-n51" to="n54-n19"/>
<trip id="252" depart="539" from="n23-n5" to="n57-n43"/>
<trip id="253" depart="539" from="n36-n24" to="n53-n38"/>
<trip id="254" depart="541" from="n19-n54" to="n51-n27"/>
<trip id="255" depart="541" from="n19-n54" to="n57-n43"/>
<trip id="256" depart="541" from="n42-n30" to="n53-n38"/>
<trip id="257" depart="546" from="n27-n51" to="n54-n19"/>
<trip id="258" depart="546" from="n18-n2" to="n24-n36"/>
<trip id="259" depart="550" from="n43-n57" to="n29-n40"/>
<trip id="260" depart="550" from="n19-n54" to="n2-n18"/>
<trip id="261" depart="553" from="n27-n51" to="n57-n43"/>
<trip id="262" depart="555" from="n44-n32" to="n33-n45"/>
<trip id="263" depart="555" from="n40-n29" to="n51-n27"/>
<trip id="264" depart="555" from="n19-n54" to="n29-n40"/>
<trip id="265" depart="555" from="n43-n57" to="n2-n18"/>
<trip id="266" depart="559" from="n42-n30" to="n53-n38"/>
<trip id="267" depart="564" from="n38-n53" to="n22-n35"/>
<trip id="268" depart="565" from="n43-n57" to="n32-n44"/>
<trip id="269" depart="569" from="n44-n32" to="n4-n20"/>
<trip id="270" depart="569" from="n20-n4" to="n57-n43"/>
<trip id="271" depart="571" from="n25-n9" to="n53-n38"/>
<trip id="272" depart="572" from="n27-n51" to="n5-n23"/>
<trip id="273" depart="573" from="n43-n57" to="n54-n19"/>
<trip id="274" depart="578" from="n38-n53" to="n1-n17"/>
<trip id="275" depart="583" from="n39-n33" to="n57-n43"/>
<trip id="276" depart="583" from="n42-n30" to="n57-n43"/>
<trip id="277" depart="586" from="n19-n54" to="n1-n21"/>
<trip id="278" depart="587" from="n27-n51" to="n53-n38"/>
<trip id="279" depart="588" from="n23-n5" to="n30-n42"/>
<trip id="280" depart="591" from="n25-n9" to="n51-n27"/>
<trip id="281" depart="592" from="n41-n29" to="n2-n18"/>
<trip id="282" depart="593" from="n43-n57" to="n24-n36"/>
<trip id="283" depart="597" from="n19-n54" to="n57-n43"/>
<trip id="284" depart="597" from="n27-n51" to="n53-n38"/>
<trip id="285" depart="598" from="n20-n4" to="n57-n43"/>
<trip id="286" depart="598" from="n19-n54" to="n53-n38"/>
<trip id="287" depart="599" from="n17-n1" to="n57-n43"/>
<trip id="288" depart="600" from="n35-n22" to="n22-n34"/>
<trip id="289" depart="601" from="n21-n1" to="n57-n43"/>
<trip id="290" depart="602" from="n38-n53" to="n51-n27"/>
<trip id="291" depart="603" from="n21-n1" to="n24-n36"/>
<trip id="292" depart="604" from="n27-n51" to="n29-n40"/>
<trip id="293" depart="605" from="n35-n22" to="n1-n17"/>
<trip id="294" depart="607" from="n20-n4" to="n24-n36"/>
<trip id="295" depart="608" from="n19-n54" to="n22-n35"/>
<trip id="296" depart="608" from="n23-n5" to="n57-n43"/>
<trip id="297" depart="611" from="n17-n1" to="n53-n38"/>
<trip id="298" depart="611" from="n41-n29" to="n24-n36"/>
<trip id="299" depart="611" from="n34-n22" to="n1-n21"/>
<trip id="300" depart="612" from="n19-n54" to="n53-n38"/>
<trip id="301" depart="614" from="n27-n51" to="n1-n21"/>
<trip id="302" depart="617" from="n39-n33" to="n54-n19"/>
<trip id="303" depart="618" from="n39-n33" to="n53-n38"/>
<trip id="304" depart="621" from="n43-n57" to="n29-n41"/>
<trip id="305" depart="622" from="n19-n54" to="n51-n27"/>
<trip id="306" depart="622" from="n27-n51" to="n24-n36"/>
<trip id="307" depart="622" from="n45-n33" to="n51-n27"/>
<trip id="308" depart="622" from="n19-n54" to="n53-n38"/>
<trip id="309" depart="624" from="n39-n33" to="n51-n27"/>
<trip id="310" depart="624" from="n35-n22" to="n26-n37"/>
<trip id="311" depart="624" from="n38-n53" to="n51-n27"/>
<trip id="312" depart="627" from="n19-n54" to="n57-n43"/>
<trip id="313" depart="632" from="n19-n54" to="n22-n34"/>
<trip id="314" depart="633" from="n38-n53" to="n32-n44"/>
<trip id="315" depart="637" from="n20-n4" to="n1-n21"/>
<trip id="316" depart="638" from="n38-n53" to="n57-n43"/>
<trip id="317" depart="640" from="n19-n54" to="n57-n43"/>
<trip id="318" depart="640" from="n25-n9" to="n30-n42"/>
<trip id="319" depart="641" from="n43-n57" to="n2-n18"/>
<trip id="320" depart="642" from="n25-n9" to="n24-n36"/>
<trip id="321" depart="644" from="n38-n53" to="n51-n27"/>
<trip id="322" depart="644" from="n45-n33" to="n53-n38"/>
<trip id="323" depart="645" from="n38-n53" to="n51-n27"/>
<trip id="324" depart="649" from="n45-n33" to="n22-n34"/>
<trip id="325" depart="651" from="n43-n57" to="n29-n40"/>
<trip id="326" depart="653" from="n43-n57" to="n54-n19"/>
<trip id="327" depart="654" from="n18-n2" to="n22-n34"/>
<trip id="328" depart="656" from="n20-n4" to="n1-n17"/>
<trip id="329" depart="657" from="n19-n54" to="n51-n27"/>
<trip id="330" depart="659" from="n17-n1" to="n30-n42"/>
<trip id="331" depart="661" from="n42-n30" to="n9-n25"/>
<trip id="332" depart="663" from="n41-n29" to="n57-n43"/>
<trip id="333" depart="665" from="n27-n51" to="n29-n40"/>
<trip id="334" depart="666" from="n27-n51" to="n54-n19"/>
<trip id="335" depart="670" from="n38-n53" to="n54-n19"/>
<trip id="336" depart="672" from="n19-n54" to="n24-n36"/>
<trip id="337" depart="672" from="n20-n4" to="n54-n19"/>
<trip id="338" depart="673" from="n37-n26" to="n29-n40"/>
<trip id="339" depart="673" from="n38-n53" to="n2-n18"/>
<trip id="340" depart="674" from="n34-n22" to="n22-n35"/>
<trip id="341" depart="683" from="n34-n22" to="n53-n38"/>
<trip id="342" depart="685" from="n35-n22" to="n24-n36"/>
<trip id="343" depart="688" from="n19-n54" to="n53-n38"/>
<trip id="344" depart="697" from="n37-n26" to="n53-n38"/>
<trip id="345" depart="702" from="n43-n57" to="n51-n27"/>
<trip id="346" depart="703" from="n40-n29" to="n53-n38"/>
<trip id="347" depart="705" from="n38-n53" to="n29-n41"/>
<trip id="348" depart="709" from="n35-n22" to="n51-n27"/>
<trip id="349" depart="715" from="n19-n54" to="n32-n44"/>
<trip id="350" depart="715" from="n17-n1" to="n53-n38"/>
<trip id="351" depart="718" from="n38-n53" to="n57-n43"/>
<trip id="352" depart="722" from="n39-n33" to="n51-n27"/>
<trip id="353" depart="725" from="n17-n1" to="n53-n38"/>
<trip id="354" depart="726" from="n38-n53" to="n1-n21"/>
<trip id="355" depart="729" from="n18-n2" to="n1-n21"/>
<trip id="356" depart="731" from="n42-n30" to="n53-n38"/>
<trip id="357" depart="731" from="n36-n24" to="n22-n34"/>
<trip id="358" depart="733" from="n19-n54" to="n53-n38"/>
<trip id="359" depart="736" from="n18-n2" to="n57-n43"/>
<trip id="360" depart="736" from="n27-n51" to="n32-n44"/>
<trip id="361" depart="737" from="n43-n57" to="n54-n19"/>
<trip id="362" depart="741" from="n43-n57" to="n54-n19"/>
<trip id="363" depart="743" from="n43-n57" to="n29-n41"/>
<trip id="364" depart="743" from="n27-n51" to="n53-n38"/>
<trip id="365" depart="744" from="n43-n57" to="n53-n38"/>
<trip id="366" depart="745" from="n36-n24" to="n57-n43"/>
<trip id="367" depart="750" from="n43-n57" to="n29-n41"/>
<trip id="368" depart="751" from="n43-n57" to="n53-n38"/>
<trip id="369" depart="751" from="n40-n29" to="n9-n25"/>
<trip id="370" depart="751" from="n23-n5" to="n54-n19"/>
<trip id="371" depart="753" from="n20-n4" to="n57-n43"/>
<trip id="372" depart="753" from="n19-n54" to="n57-n43"/>
<trip id="373" depart="754" from="n42-n30" to="n1-n21"/>
<trip id="374" depart="755" from="n40-n29" to="n57-n43"/>
<trip id="375" depart="756" from="n25-n9" to="n5-n23"/>
<trip id="376" depart="757" from="n35-n22" to="n33-n39"/>
<trip id="377" depart="758" from="n43-n57" to="n22-n35"/>
<trip id="378" depart="759" from="n42-n30" to="n4-n20"/>
<trip id="379" depart="761" from="n44-n32" to="n26-n37"/>
<trip id="380" depart="762" from="n38-n53" to="n29-n40"/>
<trip id="381" depart="764" from="n18-n2" to="n51-n27"/>
<trip id="382" depart="765" from="n27-n51" to="n57-n43"/>
<trip id="383" depart="765" from="n17-n1" to="n22-n35"/>
<trip id="384" depart="770" from="n27-n51" to="n22-n35"/>
<trip id="385" depart="771" from="n19-n54" to="n53-n38"/>
<trip id="386" depart="772" from="n41-n29" to="n53-n38"/>
<trip id="387" depart="772" from="n19-n54" to="n26-n37"/>
<trip id="388" depart="772" from="n43-n57" to="n51-n27"/>
<trip id="389" depart="773" from="n27-n51" to="n53-n38"/>
<trip id="390" depart="776" from="n43-n57" to="n5-n23"/>
<trip id="391" depart="780" from="n35-n22" to="n22-n34"/>
<trip id="392" depart="790" from="n25-n9" to="n4-n20"/>
<trip id="393" depart="792" from="n36-n24" to="n53-n38"/>
<trip id="394" depart="793" from="n43-n57" to="n51-n27"/>
<trip id="395" depart="800" from="n39-n33" to="n53-n38"/>
<trip id="396" depart="801" from="n38-n53" to="n51-n27"/>
<trip id="397" depart="802" from="n21-n1" to="n51-n27"/>
<trip id="398" depart="803" from="n43-n57" to="n30-n42"/>
<trip id="399" depart="807" from="n37-n26" to="n5-n23"/>
<trip id="400" depart="808" from="n39-n33" to="n24-n36"/>
<trip id="401" depart="809" from="n43-n57" to="n54-n19"/>
<trip id="402" depart="812" from="n44-n32" to="n5-n23"/>
<trip id="403" depart="813" from="n38-n53" to="n54-n19"/>
<trip id="404" depart="813" from="n35-n22" to="n24-n36"/>
<trip id="405" depart="815" from="n27-n51" to="n57-n43"/>
<trip id="406" depart="815" from="n43-n57" to="n51-n27"/>
<trip id="407" depart="816" from="n20-n4" to="n54-n19"/>
<trip id="408" depart="817" from="n21-n1" to="n51-n27"/>
<trip id="409" depart="818" from="n39-n33" to="n51-n27"/>
<trip id="410" depart="818" from="n21-n1" to="n33-n39"/>
<trip id="411" depart="819" from="n40-n29" to="n4-n20"/>
<trip id="412" depart="819" from="n43-n57" to="n1-n21"/>
<trip id="413" depart="820" from="n27-n51" to="n53-n38"/>
<trip id="414" depart="821" from="n43-n57" to="n24-n36"/>
<trip id="415" depart="822" from="n38-n53" to="n30-n42"/>
<trip id="416" depart="826" from="n44-n32" to="n1-n17"/>
<trip id="417" depart="827" from="n38-n53" to="n33-n45"/>
<trip id="418" depart="828" from="n41-n29" to="n1-n17"/>
<trip id="419" depart="830" from="n19-n54" to="n5-n23"/>
<trip id="420" depart="830" from="n19-n54" to="n9-n25"/>
<trip id="421" depart="830" from="n19-n54" to="n53-n38"/>
<trip id="422" depart="832" from="n18-n2" to="n57-n43"/>
<trip id="423" depart="832" from="n19-n54" to="n53-n38"/>
<trip id="424" depart="832" from="n38-n53" to="n29-n40"/>
<trip id="425" depart="834" from="n19-n54" to="n29-n40"/>
<trip id="426" depart="838" from="n34-n22" to="n1-n17"/>
<trip id="427" depart="838" from="n37-n26" to="n29-n40"/>
<trip id="428" depart="849" from="n38-n53" to="n51-n27"/>
<trip id="429" depart="853" from="n25-n9" to="n33-n45"/>
<trip id="430" depart="853" from="n19-n54" to="n53-n38"/>
<trip id="431" depart="857" from="n38-n53" to="n30-n42"/>
<trip id="432" depart="858" from="n43-n57" to="n29-n40"/>
<trip id="433" depart="859" from="n34-n22" to="n54-n19"/>
<trip id="434" depart="869" from="n19-n54" to="n33-n39"/>
<trip id="435" depart="870" from="n43-n57" to="n29-n40"/>
<trip id="436" depart="874" from="n38-n53" to="n4-n20"/>
<trip id="437" depart="874" from="n17-n1" to="n29-n40"/>
<trip id="438" depart="874" from="n35-n22" to="n9-n25"/>
<trip id="439" depart="875" from="n42-n30" to="n24-n36"/>
<trip id="440" depart="877" from="n43-n57" to="n4-n20"/>
<trip id="441" depart="880" from="n27-n51" to="n26-n37"/>
<trip id="442" depart="881" from="n40-n29" to="n57-n43"/>
<trip id="443" depart="883" from="n27-n51" to="n1-n21"/>
<trip id="444" depart="887" from="n38-n53" to="n22-n34"/>
<trip id="445" depart="892" from="n38-n53" to="n2-n18"/>
<trip id="446" depart="895" from="n43-n57" to="n54-n19"/>
<trip id="447" depart="895" from="n43-n57" to="n22-n35"/>
<trip id="448" depart="896" from="n38-n53" to="n29-n40"/>
<trip id="449" depart="896" from="n44-n32" to="n1-n21"/>
<trip id="450" depart="900" from="n19-n54" to="n29-n41"/>
<trip id="451" depart="908" from="n20-n4" to="n2-n18"/>
<trip id="452" depart="909" from="n43-n57" to="n53-n38"/>
<trip id="453" depart="912" from="n27-n51" to="n53-n38"/>
<trip id="454" depart="912" from="n34-n22" to="n54-n19"/>
<trip id="455" depart="913" from="n17-n1" to="n57-n43"/>
<trip id="456" depart="917" from="n43-n57" to="n53-n38"/>
<trip id="457" depart="919" from="n19-n54" to="n51-n27"/>
<trip id="458" depart="920" from="n45-n33" to="n51-n27"/>
<trip id="459" depart="920" from="n42-n30" to="n29-n40"/>
<trip id="460" depart="921" from="n25-n9" to="n54-n19"/>
<trip id="461" depart="925" from="n37-n26" to="n1-n21"/>
<trip id="462" depart="926" from="n41-n29" to="n53-n38"/>
<trip id="463" depart="927" from="n41-n29" to="n57-n43"/>
<trip id="464" depart="929" from="n25-n9" to="n4-n20"/>
<trip id="465" depart="933" from="n43-n57" to="n51-n27"/>
<trip id="466" depart="935" from="n17-n1" to="n2-n18"/>
<trip id="467" depart="940" from="n19-n54" to="n57-n43"/>
<trip id="468" depart="942" from="n45-n33" to="n26-n37"/>
<trip id="469" depart="949" from="n19-n54" to="n53-n38"/>
<trip id="470" depart="950" from="n39-n33" to="n54-n19"/>
<trip id="471" depart="950" from="n27-n51" to="n57-n43"/>
<trip id="472" depart="951" from="n43-n57" to="n53-n38"/>
<trip id="473" depart="954" from="n20-n4" to="n1-n21"/>
<trip id="474" depart="955" from="n35-n22" to="n54-n19"/>
<trip id="475" depart="955" from="n18-n2" to="n51-n27"/>
<trip id="476" depart="963" from="n38-n53" to="n57-n43"/>
<trip id="477" depart="966" from="n38-n53" to="n9-n25"/>
<trip id="478" depart="966" from="n19-n54" to="n57-n43"/>
<trip id="479" depart="970" from="n34-n22" to="n2-n18"/>
<trip id="480" depart="971" from="n38-n53" to="n9-n25"/>
<trip id="481" depart="973" from="n45-n33" to="n30-n42"/>
<trip id="482" depart="977" from="n35-n22" to="n1-n21"/>
<trip id="483" depart="981" from="n20-n4" to="n22-n35"/>
<trip id="484" depart="984" from="n27-n51" to="n53-n38"/>
<trip id="485" depart="985" from="n44-n32" to="n22-n34"/>
<trip id="486" depart="993" from="n35-n22" to="n53-n38"/>
<trip id="487" depart="1001" from="n42-n30" to="n54-n19"/>
<trip id="488" depart="1001" from="n40-n29" to="n33-n45"/>
<trip id="489" depart="1003" from="n27-n51" to="n22-n34"/>
<trip id="490" depart="1006" from="n25-n9" to="n33-n45"/>
<trip id="491" depart="1011" from="n21-n1" to="n29-n41"/>
<trip id="492" depart="1016" from="n20-n4" to="n32-n44"/>
<trip id="493" depart="1023" from="n18-n2" to="n1-n17"/>
<trip id="494" depart="1024" from="n38-n53" to="n4-n20"/>
<trip id="495" depart="1028" from="n36-n24" to="n57-n43"/>
<trip id="496" depart="1030" from="n36-n24" to="n9-n25"/>
<trip id="497" depart="1030" from="n23-n5" to="n53-n38"/>
<trip id="498" depart="1031" from="n45-n33" to="n22-n35"/>
<trip id="499" depart="1033" from="n19-n54" to="n29-n40"/>
<trip id="500" depart="1034" from="n44-n32" to="n22-n34"/>
<trip id="501" depart="1036" from="n41-n29" to="n54-n19"/>
<trip id="502" depart="1038" from="n43-n57" to="n53-n38"/>
<trip id="503" depart="1039" from="n44-n32" to="n54-n19"/>
<trip id="504" depart="1039" from="n34-n22" to="n57-n43"/>
<trip id="505" depart="1041" from="n20-n4" to="n33-n39"/>
<trip id="506" depart="1041" from="n21-n1" to="n51-n27"/>
<trip id="507" depart="1043" from="n27-n51" to="n24-n36"/>
<trip id="508" depart="1044" from="n25-n9" to="n22-n35"/>
<trip id="509" depart="1052" from="n43-n57" to="n5-n23"/>
<trip id="510" depart="1053" from="n38-n53" to="n26-n37"/>
<trip id="511" depart="1054" from="n19-n54" to="n29-n40"/>
<trip id="512" depart="1056" from="n27-n51" to="n32-n44"/>
<trip id="513" depart="1057" from="n38-n53" to="n26-n37"/>
<trip id="514" depart="1060" from="n19-n54" to="n57-n43"/>
<trip id="515" depart="1060" from="n27-n51" to="n57-n43"/>
<trip id="516" depart="1062" from="n44-n32" to="n33-n45"/>
<trip id="517" depart="1063" from="n43-n57" to="n53-n38"/>
<trip id="518" depart="1065" from="n44-n32" to="n53-n38"/>
<trip id="519" depart="1066" from="n43-n57" to="n33-n45"/>