<routes>
    <vType accel="1.0" decel="5.0" id="Car" jmIgnoreKeepClearTime="100.0" maxSpeed="30" length="3" />
        
    <!--emergencyDecel="0.0"-->
    <trip id="0" depart="0" from="n19-n54" to="n33-n39"/>
<trip id="1" depart="1" from="n43-n57" to="n51-n27"/>
<trip id="2" depart="2" from="n36-n24" to="n54-n19"/>
<trip id="3" depart="2" from="n43-n57" to="n32-n44"/>
<trip id="4" depart="2" from="n38-n53" to="n57-n43"/>
<trip id="5" depart="2" from="n45-n33" to="n30-n42"/>
<trip id="6" depart="2" from="n27-n51" to="n53-n38"/>
<trip id="7" depart="3" from="n25-n9" to="n57-n43"/>
<trip id="8" depart="3" from="n23-n5" to="n1-n21"/>
<trip id="9" depart="3" from="n35-n22" to="n51-n27"/>
<trip id="10" depart="3" from="n27-n51" to="n22-n34"/>
<trip id="11" depart="3" from="n43-n57" to="n33-n45"/>
<trip id="12" depart="4" from="n19-n54" to="n2-n18"/>
<trip id="13" depart="4" from="n19-n54" to="n57-n43"/>
<trip id="14" depart="4" from="n21-n1" to="n54-n19"/>
<trip id="15" depart="6" from="n44-n32" to="n30-n42"/>
<trip id="16" depart="6" from="n21-n1" to="n57-n43"/>
<trip id="17" depart="6" from="n43-n57" to="n22-n35"/>
<trip id="18" depart="7" from="n27-n51" to="n29-n41"/>
<trip id="19" depart="8" from="n38-n53" to="n24-n36"/>
<trip id="20" depart="10" from="n43-n57" to="n4-n20"/>
<trip id="21" depart="10" from="n37-n26" to="n57-n43"/>
<trip id="22" depart="10" from="n43-n57" to="n54-n19"/>
<trip id="23" depart="11" from="n43-n57" to="n51-n27"/>
<trip id="24" depart="12" from="n25-n9" to="n4-n20"/>
<trip id="25" depart="14" from="n27-n51" to="n57-n43"/>
<trip id="26" depart="14" from="n39-n33" to="n54-n19"/>
<trip id="27" depart="15" from="n34-n22" to="n53-n38"/>
<trip id="28" depart="15" from="n39-n33" to="n5-n23"/>
<trip id="29" depart="15" from="n41-n29" to="n1-n21"/>
<trip id="30" depart="18" from="n40-n29" to="n53-n38"/>
<trip id="31" depart="19" from="n34-n22" to="n2-n18"/>
<trip id="32" depart="20" from="n27-n51" to="n5-n23"/>
<trip id="33" depart="21" from="n19-n54" to="n30-n42"/>
<trip id="34" depart="22" from="n19-n54" to="n57-n43"/>
<trip id="35" depart="22" from="n40-n29" to="n9-n25"/>
<trip id="36" depart="22" from="n43-n57" to="n30-n42"/>
<trip id="37" depart="23" from="n19-n54" to="n5-n23"/>
<trip id="38" depart="23" from="n42-n30" to="n32-n44"/>
<trip id="39" depart="23" from="n43-n57" to="n22-n34"/>
<trip id="40" depart="23" from="n19-n54" to="n57-n43"/>
<trip id="41" depart="25" from="n27-n51" to="n2-n18"/>
<trip id="42" depart="25" from="n19-n54" to="n24-n36"/>
<trip id="43" depart="27" from="n34-n22" to="n51-n27"/>
<trip id="44" depart="27" from="n34-n22" to="n54-n19"/>
<trip id="45" depart="28" from="n43-n57" to="n9-n25"/>
<trip id="46" depart="29" from="n23-n5" to="n53-n38"/>
<trip id="47" depart="32" from="n40-n29" to="n5-n23"/>
<trip id="48" depart="32" from="n44-n32" to="n54-n19"/>
<trip id="49" depart="32" from="n27-n51" to="n29-n41"/>
<trip id="50" depart="32" from="n45-n33" to="n51-n27"/>
<trip id="51" depart="32" from="n43-n57" to="n53-n38"/>
<trip id="52" depart="33" from="n27-n51" to="n54-n19"/>
<trip id="53" depart="33" from="n42-n30" to="n9-n25"/>
<trip id="54" depart="33" from="n19-n54" to="n30-n42"/>
<trip id="55" depart="34" from="n34-n22" to="n29-n40"/>
<trip id="56" depart="34" from="n43-n57" to="n22-n34"/>
<trip id="57" depart="35" from="n38-n53" to="n57-n43"/>
<trip id="58" depart="35" from="n43-n57" to="n30-n42"/>
<trip id="59" depart="35" from="n41-n29" to="n1-n21"/>
<trip id="60" depart="35" from="n43-n57" to="n51-n27"/>
<trip id="61" depart="35" from="n19-n54" to="n33-n39"/>
<trip id="62" depart="36" from="n35-n22" to="n53-n38"/>
<trip id="63" depart="36" from="n42-n30" to="n57-n43"/>
<trip id="64" depart="37" from="n38-n53" to="n54-n19"/>
<trip id="65" depart="37" from="n35-n22" to="n53-n38"/>
<trip id="66" depart="38" from="n27-n51" to="n22-n34"/>
<trip id="67" depart="39" from="n18-n2" to="n54-n19"/>
<trip id="68" depart="40" from="n38-n53" to="n26-n37"/>
<trip id="69" depart="40" from="n43-n57" to="n5-n23"/>
<trip id="70" depart="41" from="n19-n54" to="n33-n45"/>
<trip id="71" depart="42" from="n39-n33" to="n51-n27"/>
<trip id="72" depart="42" from="n37-n26" to="n32-n44"/>
<trip id="73" depart="43" from="n43-n57" to="n5-n23"/>
<trip id="74" depart="44" from="n38-n53" to="n24-n36"/>
<trip id="75" depart="45" from="n18-n2" to="n24-n36"/>
<trip id="76" depart="47" from="n43-n57" to="n54-n19"/>
<trip id="77" depart="48" from="n27-n51" to="n29-n40"/>
<trip id="78" depart="49" from="n27-n51" to="n9-n25"/>
<trip id="79" depart="49" from="n45-n33" to="n29-n40"/>
<trip id="80" depart="50" from="n18-n2" to="n51-n27"/>
<trip id="81" depart="51" from="n19-n54" to="n5-n23"/>
<trip id="82" depart="51" from="n23-n5" to="n51-n27"/>
<trip id="83" depart="51" from="n39-n33" to="n51-n27"/>
<trip id="84" depart="51" from="n19-n54" to="n57-n43"/>
<trip id="85" depart="52" from="n45-n33" to="n2-n18"/>
<trip id="86" depart="52" from="n27-n51" to="n53-n38"/>
<trip id="87" depart="53" from="n27-n51" to="n4-n20"/>
<trip id="88" depart="55" from="n19-n54" to="n2-n18"/>
<trip id="89" depart="55" from="n45-n33" to="n57-n43"/>
<trip id="90" depart="55" from="n27-n51" to="n53-n38"/>
<trip id="91" depart="55" from="n35-n22" to="n29-n41"/>
<trip id="92" depart="55" from="n37-n26" to="n57-n43"/>
<trip id="93" depart="55" from="n20-n4" to="n29-n41"/>
<trip id="94" depart="56" from="n36-n24" to="n29-n40"/>
<trip id="95" depart="57" from="n35-n22" to="n54-n19"/>
<trip id="96" depart="57" from="n19-n54" to="n57-n43"/>
<trip id="97" depart="57" from="n43-n57" to="n29-n41"/>
<trip id="98" depart="58" from="n19-n54" to="n5-n23"/>
<trip id="99" depart="58" from="n25-n9" to="n26-n37"/>
<trip id="100" depart="58" from="n34-n22" to="n24-n36"/>
<trip id="101" depart="59" from="n43-n57" to="n26-n37"/>
<trip id="102" depart="59" from="n27-n51" to="n54-n19"/>
<trip id="103" depart="59" from="n38-n53" to="n1-n21"/>
<trip id="104" depart="59" from="n37-n26" to="n22-n34"/>
<trip id="105" depart="60" from="n23-n5" to="n51-n27"/>
<trip id="106" depart="61" from="n38-n53" to="n51-n27"/>
<trip id="107" depart="63" from="n19-n54" to="n57-n43"/>
<trip id="108" depart="64" from="n19-n54" to="n53-n38"/>
<trip id="109" depart="66" from="n43-n57" to="n51-n27"/>
<trip id="110" depart="68" from="n27-n51" to="n57-n43"/>
<trip id="111" depart="69" from="n19-n54" to="n26-n37"/>
<trip id="112" depart="69" from="n25-n9" to="n26-n37"/>
<trip id="113" depart="69" from="n37-n26" to="n57-n43"/>
<trip id="114" depart="70" from="n37-n26" to="n24-n36"/>
<trip id="115" depart="70" from="n27-n51" to="n54-n19"/>
<trip id="116" depart="71" from="n42-n30" to="n1-n17"/>
<trip id="117" depart="73" from="n39-n33" to="n57-n43"/>
<trip id="118" depart="73" from="n17-n1" to="n53-n38"/>
<trip id="119" depart="73" from="n19-n54" to="n22-n35"/>
<trip id="120" depart="74" from="n37-n26" to="n57-n43"/>
<trip id="121" depart="78" from="n18-n2" to="n54-n19"/>
<trip id="122" depart="79" from="n19-n54" to="n53-n38"/>
<trip id="123" depart="79" from="n45-n33" to="n57-n43"/>
<trip id="124" depart="80" from="n43-n57" to="n9-n25"/>
<trip id="125" depart="81" from="n43-n57" to="n53-n38"/>
<trip id="126" depart="82" from="n43-n57" to="n51-n27"/>
<trip id="127" depart="82" from="n41-n29" to="n22-n35"/>
<trip id="128" depart="82" from="n19-n54" to="n24-n36"/>
<trip id="129" depart="82" from="n38-n53" to="n33-n39"/>
<trip id="130" depart="83" from="n34-n22" to="n9-n25"/>
<trip id="131" depart="83" from="n27-n51" to="n57-n43"/>
<trip id="132" depart="84" from="n43-n57" to="n33-n39"/>
<trip id="133" depart="86" from="n43-n57" to="n51-n27"/>
<trip id="134" depart="87" from="n34-n22" to="n30-n42"/>
<trip id="135" depart="87" from="n35-n22" to="n51-n27"/>
<trip id="136" depart="88" from="n43-n57" to="n26-n37"/>
<trip id="137" depart="89" from="n38-n53" to="n24-n36"/>
<trip id="138" depart="89" from="n38-n53" to="n54-n19"/>
<trip id="139" depart="93" from="n38-n53" to="n24-n36"/>
<trip id="140" depart="93" from="n27-n51" to="n53-n38"/>
<trip id="141" depart="94" from="n38-n53" to="n4-n20"/>
<trip id="142" depart="95" from="n27-n51" to="n33-n39"/>
<trip id="143" depart="98" from="n43-n57" to="n5-n23"/>
<trip id="144" depart="98" from="n38-n53" to="n33-n39"/>
<trip id="145" depart="98" from="n27-n51" to="n57-n43"/>
<trip id="146" depart="98" from="n40-n29" to="n9-n25"/>
<trip id="147" depart="100" from="n45-n33" to="n53-n38"/>
<trip id="148" depart="101" from="n38-n53" to="n5-n23"/>
<trip id="149" depart="102" from="n38-n53" to="n54-n19"/>
<trip id="150" depart="102" from="n39-n33" to="n1-n17"/>
<trip id="151" depart="103" from="n36-n24" to="n51-n27"/>
<trip id="152" depart="103" from="n23-n5" to="n33-n39"/>
<trip id="153" depart="104" from="n40-n29" to="n51-n27"/>
<trip id="154" depart="104" from="n25-n9" to="n54-n19"/>
<trip id="155" depart="105" from="n35-n22" to="n54-n19"/>
<trip id="156" depart="105" from="n43-n57" to="n9-n25"/>
<trip id="157" depart="105" from="n19-n54" to="n57-n43"/>
<trip id="158" depart="106" from="n38-n53" to="n29-n40"/>
<trip id="159" depart="106" from="n38-n53" to="n57-n43"/>
<trip id="160" depart="108" from="n20-n4" to="n53-n38"/>
<trip id="161" depart="108" from="n34-n22" to="n53-n38"/>
<trip id="162" depart="112" from="n19-n54" to="n1-n21"/>
<trip id="163" depart="113" from="n35-n22" to="n33-n45"/>
<trip id="164" depart="113" from="n43-n57" to="n54-n19"/>
<trip id="165" depart="114" from="n40-n29" to="n32-n44"/>
<trip id="166" depart="115" from="n43-n57" to="n4-n20"/>
<trip id="167" depart="115" from="n36-n24" to="n51-n27"/>
<trip id="168" depart="117" from="n39-n33" to="n54-n19"/>
<trip id="169" depart="117" from="n21-n1" to="n22-n35"/>
<trip id="170" depart="118" from="n36-n24" to="n29-n41"/>
<trip id="171" depart="119" from="n43-n57" to="n24-n36"/>
<trip id="172" depart="119" from="n27-n51" to="n24-n36"/>
<trip id="173" depart="119" from="n20-n4" to="n22-n34"/>
<trip id="174" depart="120" from="n19-n54" to="n51-n27"/>
<trip id="175" depart="121" from="n25-n9" to="n53-n38"/>
<trip id="176" depart="122" from="n25-n9" to="n57-n43"/>
<trip id="177" depart="123" from="n38-n53" to="n2-n18"/>
<trip id="178" depart="123" from="n38-n53" to="n1-n21"/>
<trip id="179" depart="123" from="n20-n4" to="n9-n25"/>
<trip id="180" depart="124" from="n34-n22" to="n1-n21"/>
<trip id="181" depart="124" from="n19-n54" to="n57-n43"/>
<trip id="182" depart="127" from="n38-n53" to="n57-n43"/>
<trip id="183" depart="127" from="n38-n53" to="n33-n45"/>
<trip id="184" depart="128" from="n21-n1" to="n54-n19"/>
<trip id="185" depart="128" from="n41-n29" to="n54-n19"/>
<trip id="186" depart="129" from="n38-n53" to="n51-n27"/>
<trip id="187" depart="129" from="n38-n53" to="n51-n27"/>
<trip id="188" depart="129" from="n27-n51" to="n54-n19"/>
<trip id="189" depart="129" from="n38-n53" to="n29-n40"/>
<trip id="190" depart="129" from="n43-n57" to="n2-n18"/>
<trip id="191" depart="129" from="n41-n29" to="n57-n43"/>
<trip id="192" depart="132" from="n43-n57" to="n51-n27"/>
<trip id="193" depart="132" from="n36-n24" to="n33-n45"/>
<trip id="194" depart="133" from="n27-n51" to="n4-n20"/>
<trip id="195" depart="133" from="n23-n5" to="n26-n37"/>
<trip id="196" depart="133" from="n25-n9" to="n2-n18"/>
<trip id="197" depart="134" from="n35-n22" to="n1-n17"/>
<trip id="198" depart="137" from="n43-n57" to="n22-n35"/>
<trip id="199" depart="137" from="n27-n51" to="n33-n39"/>
<trip id="200" depart="139" from="n27-n51" to="n4-n20"/>
<trip id="201" depart="141" from="n38-n53" to="n1-n21"/>
<trip id="202" depart="141" from="n25-n9" to="n57-n43"/>
<trip id="203" depart="141" from="n38-n53" to="n57-n43"/>
<trip id="204" depart="141" from="n37-n26" to="n29-n41"/>
<trip id="205" depart="142" from="n19-n54" to="n57-n43"/>
<trip id="206" depart="143" from="n38-n53" to="n54-n19"/>
<trip id="207" depart="144" from="n44-n32" to="n57-n43"/>
<trip id="208" depart="144" from="n20-n4" to="n33-n39"/>
<trip id="209" depart="144" from="n38-n53" to="n54-n19"/>
<trip id="210" depart="145" from="n43-n57" to="n51-n27"/>
<trip id="211" depart="146" from="n21-n1" to="n57-n43"/>
<trip id="212" depart="147" from="n21-n1" to="n51-n27"/>
<trip id="213" depart="147" from="n45-n33" to="n4-n20"/>
<trip id="214" depart="149" from="n38-n53" to="n32-n44"/>
<trip id="215" depart="150" from="n27-n51" to="n1-n17"/>
<trip id="216" depart="151" from="n39-n33" to="n51-n27"/>
<trip id="217" depart="151" from="n37-n26" to="n30-n42"/>
<trip id="218" depart="152" from="n45-n33" to="n4-n20"/>
<trip id="219" depart="152" from="n19-n54" to="n57-n43"/>
<trip id="220" depart="157" from="n23-n5" to="n33-n45"/>
<trip id="221" depart="157" from="n41-n29" to="n54-n19"/>
<trip id="222" depart="158" from="n27-n51" to="n53-n38"/>
<trip id="223" depart="159" from="n43-n57" to="n32-n44"/>
<trip id="224" depart="160" from="n38-n53" to="n33-n39"/>
<trip id="225" depart="161" from="n38-n53" to="n29-n41"/>
<trip id="226" depart="162" from="n43-n57" to="n54-n19"/>
<trip id="227" depart="164" from="n42-n30" to="n4-n20"/>
<trip id="228" depart="164" from="n19-n54" to="n4-n20"/>
<trip id="229" depart="164" from="n40-n29" to="n57-n43"/>
<trip id="230" depart="165" from="n38-n53" to="n54-n19"/>
<trip id="231" depart="165" from="n19-n54" to="n9-n25"/>
<trip id="232" depart="166" from="n23-n5" to="n54-n19"/>
<trip id="233" depart="166" from="n38-n53" to="n30-n42"/>
<trip id="234" depart="167" from="n27-n51" to="n26-n37"/>
<trip id="235" depart="168" from="n27-n51" to="n53-n38"/>
<trip id="236" depart="169" from="n43-n57" to="n26-n37"/>
<trip id="237" depart="170" from="n27-n51" to="n24-n36"/>
<trip id="238" depart="170" from="n17-n1" to="n53-n38"/>
<trip id="239" depart="170" from="n27-n51" to="n54-n19"/>
<trip id="240" depart="172" from="n41-n29" to="n53-n38"/>
<trip id="241" depart="172" from="n20-n4" to="n32-n44"/>
<trip id="242" depart="173" from="n43-n57" to="n4-n20"/>
<trip id="243" depart="175" from="n38-n53" to="n54-n19"/>
<trip id="244" depart="175" from="n38-n53" to="n1-n21"/>
<trip id="245" depart="175" from="n37-n26" to="n5-n23"/>
<trip id="246" depart="176" from="n43-n57" to="n1-n21"/>
<trip id="247" depart="176" from="n40-n29" to="n51-n27"/>
<trip id="248" depart="176" from="n21-n1" to="n51-n27"/>
<trip id="249" depart="177" from="n27-n51" to="n57-n43"/>
<trip id="250" depart="178" from="n43-n57" to="n54-n19"/>
<trip id="251" depart="178" from="n19-n54" to="n57-n43"/>
<trip id="252" depart="179" from="n19-n54" to="n53-n38"/>
<trip id="253" depart="180" from="n39-n33" to="n32-n44"/>
<trip id="254" depart="180" from="n27-n51" to="n26-n37"/>
<trip id="255" depart="180" from="n40-n29" to="n57-n43"/>
<trip id="256" depart="180" from="n27-n51" to="n57-n43"/>
<trip id="257" depart="180" from="n25-n9" to="n29-n40"/>
<trip id="258" depart="181" from="n40-n29" to="n57-n43"/>
<trip id="259" depart="181" from="n27-n51" to="n53-n38"/>
<trip id="260" depart="182" from="n19-n54" to="n5-n23"/>
<trip id="261" depart="183" from="n18-n2" to="n57-n43"/>
<trip id="262" depart="184" from="n36-n24" to="n57-n43"/>
<trip id="263" depart="184" from="n38-n53" to="n57-n43"/>
<trip id="264" depart="185" from="n39-n33" to="n51-n27"/>
<trip id="265" depart="187" from="n27-n51" to="n2-n18"/>
<trip id="266" depart="188" from="n42-n30" to="n33-n45"/>
<trip id="267" depart="189" from="n23-n5" to="n30-n42"/>
<trip id="268" depart="190" from="n43-n57" to="n2-n18"/>
<trip id="269" depart="190" from="n43-n57" to="n33-n45"/>
<trip id="270" depart="191" from="n38-n53" to="n4-n20"/>
<trip id="271" depart="192" from="n38-n53" to="n29-n41"/>
<trip id="272" depart="193" from="n38-n53" to="n30-n42"/>
<trip id="273" depart="193" from="n17-n1" to="n53-n38"/>
<trip id="274" depart="194" from="n19-n54" to="n53-n38"/>
<trip id="275" depart="195" from="n27-n51" to="n30-n42"/>
<trip id="276" depart="195" from="n25-n9" to="n54-n19"/>
<trip id="277" depart="195" from="n19-n54" to="n53-n38"/>
<trip id="278" depart="196" from="n38-n53" to="n26-n37"/>
<trip id="279" depart="196" from="n19-n54" to="n51-n27"/>
<trip id="280" depart="196" from="n35-n22" to="n4-n20"/>
<trip id="281" depart="196" from="n43-n57" to="n51-n27"/>
<trip id="282" depart="197" from="n38-n53" to="n33-n39"/>
<trip id="283" depart="197" from="n19-n54" to="n53-n38"/>
<trip id="284" depart="198" from="n18-n2" to="n54-n19"/>
<trip id="285" depart="200" from="n36-n24" to="n32-n44"/>
<trip id="286" depart="200" from="n27-n51" to="n2-n18"/>
<trip id="287" depart="200" from="n19-n54" to="n57-n43"/>
<trip id="288" depart="202" from="n36-n24" to="n53-n38"/>
<trip id="289" depart="202" from="n19-n54" to="n51-n27"/>
<trip id="290" depart="202" from="n44-n32" to="n1-n21"/>
<trip id="291" depart="203" from="n38-n53" to="n54-n19"/>
<trip id="292" depart="204" from="n43-n57" to="n1-n21"/>
<trip id="293" depart="205" from="n25-n9" to="n24-n36"/>
<trip id="294" depart="205" from="n43-n57" to="n22-n35"/>
<trip id="295" depart="205" from="n27-n51" to="n2-n18"/>
<trip id="296" depart="205" from="n45-n33" to="n29-n41"/>
<trip id="297" depart="205" from="n41-n29" to="n53-n38"/>
<trip id="298" depart="205" from="n27-n51" to="n2-n18"/>
<trip id="299" depart="206" from="n34-n22" to="n9-n25"/>
<trip id="300" depart="206" from="n34-n22" to="n22-n35"/>
<trip id="301" depart="208" from="n45-n33" to="n53-n38"/>
<trip id="302" depart="209" from="n18-n2" to="n53-n38"/>
<trip id="303" depart="209" from="n25-n9" to="n57-n43"/>
<trip id="304" depart="210" from="n18-n2" to="n57-n43"/>
<trip id="305" depart="210" from="n40-n29" to="n9-n25"/>
<trip id="306" depart="210" from="n40-n29" to="n24-n36"/>
<trip id="307" depart="210" from="n27-n51" to="n54-n19"/>
<trip id="308" depart="211" from="n43-n57" to="n24-n36"/>
<trip id="309" depart="211" from="n43-n57" to="n53-n38"/>
<trip id="310" depart="211" from="n40-n29" to="n1-n17"/>
<trip id="311" depart="212" from="n19-n54" to="n22-n35"/>
<trip id="312" depart="212" from="n23-n5" to="n54-n19"/>
<trip id="313" depart="213" from="n43-n57" to="n32-n44"/>
<trip id="314" depart="213" from="n43-n57" to="n54-n19"/>
<trip id="315" depart="214" from="n36-n24" to="n30-n42"/>
<trip id="316" depart="214" from="n20-n4" to="n57-n43"/>
<trip id="317" depart="214" from="n38-n53" to="n57-n43"/>
<trip id="318" depart="215" from="n27-n51" to="n30-n42"/>
<trip id="319" depart="215" from="n19-n54" to="n30-n42"/>
<trip id="320" depart="216" from="n19-n54" to="n9-n25"/>
<trip id="321" depart="216" from="n21-n1" to="n32-n44"/>
<trip id="322" depart="217" from="n43-n57" to="n51-n27"/>
<trip id="323" depart="217" from="n38-n53" to="n51-n27"/>
<trip id="324" depart="219" from="n45-n33" to="n1-n21"/>
<trip id="325" depart="220" from="n23-n5" to="n30-n42"/>
<trip id="326" depart="220" from="n27-n51" to="n57-n43"/>
<trip id="327" depart="221" from="n21-n1" to="n29-n41"/>
<trip id="328" depart="223" from="n21-n1" to="n51-n27"/>
<trip id="329" depart="225" from="n43-n57" to="n2-n18"/>
<trip id="330" depart="225" from="n44-n32" to="n53-n38"/>
<trip id="331" depart="225" from="n27-n51" to="n22-n34"/>
<trip id="332" depart="227" from="n36-n24" to="n57-n43"/>
<trip id="333" depart="229" from="n19-n54" to="n53-n38"/>
<trip id="334" depart="229" from="n19-n54" to="n24-n36"/>
<trip id="335" depart="229" from="n23-n5" to="n2-n18"/>
<trip id="336" depart="230" from="n39-n33" to="n4-n20"/>
<trip id="337" depart="230" from="n42-n30" to="n53-n38"/>
<trip id="338" depart="230" from="n19-n54" to="n29-n41"/>
<trip id="339" depart="230" from="n21-n1" to="n54-n19"/>
<trip id="340" depart="230" from="n21-n1" to="n53-n38"/>
<trip id="341" depart="230" from="n36-n24" to="n1-n17"/>
<trip id="342" depart="233" from="n44-n32" to="n57-n43"/>
<trip id="343" depart="233" from="n19-n54" to="n1-n17"/>
<trip id="344" depart="233" from="n19-n54" to="n1-n17"/>
<trip id="345" depart="235" from="n35-n22" to="n51-n27"/>
<trip id="346" depart="236" from="n43-n57" to="n54-n19"/>
<trip id="347" depart="238" from="n20-n4" to="n1-n21"/>
<trip id="348" depart="239" from="n38-n53" to="n29-n41"/>
<trip id="349" depart="239" from="n37-n26" to="n53-n38"/>
<trip id="350" depart="240" from="n43-n57" to="n4-n20"/>
<trip id="351" depart="240" from="n20-n4" to="n33-n45"/>
<trip id="352" depart="242" from="n38-n53" to="n57-n43"/>
<trip id="353" depart="242" from="n43-n57" to="n29-n40"/>
<trip id="354" depart="242" from="n38-n53" to="n57-n43"/>
<trip id="355" depart="243" from="n23-n5" to="n26-n37"/>
<trip id="356" depart="244" from="n34-n22" to="n51-n27"/>
<trip id="357" depart="245" from="n38-n53" to="n57-n43"/>
<trip id="358" depart="245" from="n40-n29" to="n53-n38"/>
<trip id="359" depart="246" from="n44-n32" to="n2-n18"/>
<trip id="360" depart="246" from="n38-n53" to="n57-n43"/>
<trip id="361" depart="247" from="n43-n57" to="n33-n45"/>
<trip id="362" depart="247" from="n40-n29" to="n24-n36"/>
<trip id="363" depart="247" from="n17-n1" to="n53-n38"/>
<trip id="364" depart="249" from="n38-n53" to="n26-n37"/>
<trip id="365" depart="249" from="n44-n32" to="n22-n35"/>
<trip id="366" depart="249" from="n38-n53" to="n26-n37"/>
<trip id="367" depart="249" from="n44-n32" to="n33-n39"/>
<trip id="368" depart="250" from="n18-n2" to="n33-n39"/>
<trip id="369" depart="250" from="n19-n54" to="n53-n38"/>
<trip id="370" depart="250" from="n35-n22" to="n26-n37"/>
<trip id="371" depart="251" from="n36-n24" to="n32-n44"/>
<trip id="372" depart="252" from="n21-n1" to="n53-n38"/>
<trip id="373" depart="253" from="n20-n4" to="n53-n38"/>
<trip id="374" depart="254" from="n19-n54" to="n57-n43"/>
<trip id="375" depart="256" from="n27-n51" to="n30-n42"/>
<trip id="376" depart="258" from="n38-n53" to="n22-n34"/>
<trip id="377" depart="258" from="n21-n1" to="n51-n27"/>
<trip id="378" depart="258" from="n27-n51" to="n32-n44"/>
<trip id="379" depart="259" from="n19-n54" to="n57-n43"/>
<trip id="380" depart="263" from="n41-n29" to="n1-n17"/>
<trip id="381" depart="263" from="n38-n53" to="n54-n19"/>
<trip id="382" depart="264" from="n20-n4" to="n54-n19"/>
<trip id="383" depart="265" from="n19-n54" to="n57-n43"/>
<trip id="384" depart="266" from="n35-n22" to="n30-n42"/>
<trip id="385" depart="266" from="n37-n26" to="n22-n35"/>
<trip id="386" depart="266" from="n39-n33" to="n57-n43"/>
<trip id="387" depart="267" from="n19-n54" to="n4-n20"/>
<trip id="388" depart="268" from="n17-n1" to="n22-n35"/>
<trip id="389" depart="270" from="n25-n9" to="n30-n42"/>
<trip id="390" depart="270" from="n38-n53" to="n1-n21"/>
<trip id="391" depart="270" from="n44-n32" to="n53-n38"/>
<trip id="392" depart="272" from="n41-n29" to="n4-n20"/>
<trip id="393" depart="274" from="n19-n54" to="n53-n38"/>
<trip id="394" depart="274" from="n38-n53" to="n57-n43"/>
<trip id="395" depart="277" from="n19-n54" to="n1-n17"/>
<trip id="396" depart="280" from="n43-n57" to="n1-n21"/>
<trip id="397" depart="280" from="n38-n53" to="n5-n23"/>
<trip id="398" depart="280" from="n19-n54" to="n4-n20"/>
<trip id="399" depart="281" from="n19-n54" to="n1-n21"/>
<trip id="400" depart="281" from="n25-n9" to="n54-n19"/>
<trip id="401" depart="282" from="n27-n51" to="n54-n19"/>
<trip id="402" depart="283" from="n45-n33" to="n24-n36"/>
<trip id="403" depart="284" from="n45-n33" to="n57-n43"/>
<trip id="404" depart="284" from="n38-n53" to="n5-n23"/>
<trip id="405" depart="284" from="n43-n57" to="n5-n23"/>
<trip id="406" depart="285" from="n27-n51" to="n22-n34"/>
<trip id="407" depart="285" from="n35-n22" to="n26-n37"/>
<trip id="408" depart="286" from="n38-n53" to="n51-n27"/>
<trip id="409" depart="286" from="n43-n57" to="n33-n39"/>
<trip id="410" depart="286" from="n45-n33" to="n53-n38"/>
<trip id="411" depart="286" from="n37-n26" to="n57-n43"/>
<trip id="412" depart="287" from="n19-n54" to="n26-n37"/>
<trip id="413" depart="287" from="n44-n32" to="n4-n20"/>
<trip id="414" depart="288" from="n27-n51" to="n53-n38"/>
<trip id="415" depart="289" from="n21-n1" to="n53-n38"/>
<trip id="416" depart="289" from="n23-n5" to="n9-n25"/>
<trip id="417" depart="290" from="n25-n9" to="n54-n19"/>
<trip id="418" depart="290" from="n19-n54" to="n26-n37"/>
<trip id="419" depart="290" from="n19-n54" to="n53-n38"/>
<trip id="420" depart="291" from="n36-n24" to="n22-n35"/>
<trip id="421" depart="292" from="n44-n32" to="n29-n40"/>
<trip id="422" depart="292" from="n19-n54" to="n53-n38"/>
<trip id="423" depart="293" from="n19-n54" to="n30-n42"/>
<trip id="424" depart="294" from="n43-n57" to="n53-n38"/>
<trip id="425" depart="295" from="n34-n22" to="n57-n43"/>
<trip id="426" depart="296" from="n19-n54" to="n53-n38"/>
<trip id="427" depart="297" from="n21-n1" to="n4-n20"/>
<trip id="428" depart="298" from="n37-n26" to="n32-n44"/>
<trip id="429" depart="299" from="n45-n33" to="n29-n40"/>
<trip id="430" depart="300" from="n27-n51" to="n22-n34"/>
<trip id="431" depart="302" from="n38-n53" to="n22-n35"/>
<trip id="432" depart="303" from="n27-n51" to="n54-n19"/>
<trip id="433" depart="304" from="n43-n57" to="n26-n37"/>
<trip id="434" depart="304" from="n43-n57" to="n5-n23"/>
<trip id="435" depart="305" from="n36-n24" to="n22-n34"/>
<trip id="436" depart="305" from="n21-n1" to="n51-n27"/>
<trip id="437" depart="307" from="n19-n54" to="n22-n34"/>
<trip id="438" depart="309" from="n25-n9" to="n33-n45"/>
<trip id="439" depart="309" from="n23-n5" to="n32-n44"/>
<trip id="440" depart="311" from="n19-n54" to="n51-n27"/>
<trip id="441" depart="313" from="n43-n57" to="n53-n38"/>
<trip id="442" depart="314" from="n43-n57" to="n29-n41"/>
<trip id="443" depart="314" from="n27-n51" to="n57-n43"/>
<trip id="444" depart="315" from="n43-n57" to="n26-n37"/>
<trip id="445" depart="316" from="n17-n1" to="n9-n25"/>
<trip id="446" depart="316" from="n19-n54" to="n53-n38"/>
<trip id="447" depart="316" from="n23-n5" to="n2-n18"/>
<trip id="448" depart="319" from="n42-n30" to="n29-n41"/>
<trip id="449" depart="319" from="n36-n24" to="n29-n41"/>
<trip id="450" depart="319" from="n19-n54" to="n32-n44"/>
<trip id="451" depart="319" from="n43-n57" to="n9-n25"/>
<trip id="452" depart="322" from="n19-n54" to="n51-n27"/>
<trip id="453" depart="322" from="n43-n57" to="n2-n18"/>
<trip id="454" depart="322" from="n27-n51" to="n54-n19"/>
<trip id="455" depart="324" from="n27-n51" to="n29-n41"/>
<trip id="456" depart="325" from="n43-n57" to="n1-n21"/>
<trip id="457" depart="325" from="n25-n9" to="n2-n18"/>
<trip id="458" depart="326" from="n35-n22" to="n30-n42"/>
<trip id="459" depart="328" from="n19-n54" to="n53-n38"/>
<trip id="460" depart="329" from="n27-n51" to="n4-n20"/>
<trip id="461" depart="329" from="n39-n33" to="n51-n27"/>
<trip id="462" depart="330" from="n38-n53" to="n57-n43"/>
<trip id="463" depart="331" from="n19-n54" to="n53-n38"/>
<trip id="464" depart="332" from="n17-n1" to="n33-n39"/>
<trip id="465" depart="332" from="n38-n53" to="n22-n34"/>
<trip id="466" depart="333" from="n20-n4" to="n2-n18"/>
<trip id="467" depart="334" from="n39-n33" to="n54-n19"/>
<trip id="468" depart="334" from="n40-n29" to="n57-n43"/>
<trip id="469" depart="334" from="n40-n29" to="n54-n19"/>
<trip id="470" depart="335" from="n40-n29" to="n51-n27"/>
<trip id="471" depart="336" from="n43-n57" to="n33-n39"/>
<trip id="472" depart="337" from="n19-n54" to="n22-n34"/>
<trip id="473" depart="337" from="n19-n54" to="n33-n39"/>
<trip id="474" depart="338" from="n43-n57" to="n4-n20"/>
<trip id="475" depart="338" from="n19-n54" to="n57-n43"/>
<trip id="476" depart="338" from="n43-n57" to="n2-n18"/>
<trip id="477" depart="339" from="n20-n4" to="n53-n38"/>
<trip id="478" depart="341" from="n38-n53" to="n30-n42"/>
<trip id="479" depart="341" from="n23-n5" to="n51-n27"/>
<trip id="480" depart="341" from="n19-n54" to="n57-n43"/>
<trip id="481" depart="341" from="n41-n29" to="n54-n19"/>
<trip id="482" depart="342" from="n19-n54" to="n2-n18"/>
<trip id="483" depart="342" from="n19-n54" to="n33-n39"/>
<trip id="484" depart="343" from="n23-n5" to="n53-n38"/>
<trip id="485" depart="343" from="n34-n22" to="n1-n21"/>
<trip id="486" depart="343" from="n34-n22" to="n51-n27"/>
<trip id="487" depart="344" from="n39-n33" to="n5-n23"/>
<trip id="488" depart="345" from="n41-n29" to="n1-n21"/>
<trip id="489" depart="345" from="n37-n26" to="n30-n42"/>
<trip id="490" depart="346" from="n36-n24" to="n53-n38"/>
<trip id="491" depart="346" from="n45-n33" to="n51-n27"/>
<trip id="492" depart="346" from="n40-n29" to="n29-n41"/>
<trip id="493" depart="347" from="n19-n54" to="n4-n20"/>
<trip id="494" depart="347" from="n39-n33" to="n22-n34"/>
<trip id="495" depart="348" from="n19-n54" to="n24-n36"/>
<trip id="496" depart="348" from="n44-n32" to="n54-n19"/>
<trip id="497" depart="349" from="n43-n57" to="n54-n19"/>
<trip id="498" depart="352" from="n25-n9" to="n51-n27"/>
<trip id="499" depart="352" from="n35-n22" to="n54-n19"/>
<trip id="500" depart="352" from="n21-n1" to="n53-n38"/>
<trip id="501" depart="353" from="n43-n57" to="n1-n17"/>
<trip id="502" depart="353" from="n43-n57" to="n51-n27"/>
<trip id="503" depart="355" from="n36-n24" to="n29-n41"/>
<trip id="504" depart="355" from="n34-n22" to="n26-n37"/>
<trip id="505" depart="355" from="n44-n32" to="n22-n34"/>
<trip id="506" depart="356" from="n38-n53" to="n9-n25"/>
<trip id="507" depart="357" from="n27-n51" to="n24-n36"/>
<trip id="508" depart="358" from="n27-n51" to="n54-n19"/>
<trip id="509" depart="358" from="n21-n1" to="n51-n27"/>
<trip id="510" depart="359" from="n19-n54" to="n33-n45"/>
<trip id="511" depart="361" from="n27-n51" to="n1-n17"/>
<trip id="512" depart="361" from="n17-n1" to="n26-n37"/>
<trip id="513" depart="362" from="n21-n1" to="n33-n45"/>
<trip id="514" depart="363" from="n43-n57" to="n1-n21"/>
<trip id="515" depart="364" from="n37-n26" to="n54-n19"/>
<trip id="516" depart="364" from="n44-n32" to="n24-n36"/>
<trip id="517" depart="365" from="n39-n33" to="n53-n38"/>
<trip id="518" depart="366" from="n38-n53" to="n51-n27"/>
<trip id="519" depart="367" from="n44-n32" to="n53-n38"/>
<trip id="520" depart="369" from="n27-n51" to="n5-n23"/>
<trip id="521" depart="370" from="n42-n30" to="n53-n38"/>