<?xml version="1.0" encoding="UTF-8"?>

<!-- generated on 09/23/19 10:48:20 by Eclipse SUMO netconvert Version 1.3.1
<configuration xmlns:xsi="http://www.w3.org/2001/XMLSchema-instance" xsi:noNamespaceSchemaLocation="http://sumo.dlr.de/xsd/netconvertConfiguration.xsd">

    <input>
        <node-files value="MainRoadNodes.nod.xml"/>
        <edge-files value="MainRoadEdges.edg.xml"/>
        <type-files value="TypeFile.type.xml"/>
    </input>

    <output>
        <output-file value="MainRoadRerouteNet.net.xml"/>
    </output>

</configuration>
-->

<net version="1.3" junctionCornerDetail="5" limitTurnSpeed="5.50" xmlns:xsi="http://www.w3.org/2001/XMLSchema-instance" xsi:noNamespaceSchemaLocation="http://sumo.dlr.de/xsd/net_file.xsd">

    <location netOffset="-1.00,-100.00" convBoundary="0.00,0.00,399.00,200.00" origBoundary="1.00,100.00,400.00,300.00" projParameter="!"/>

    <type id="slowroad" priority="1" numLanes="2" speed="12.00"/>
    <type id="slowroad_in" priority="1" numLanes="2" speed="12.00"/>
    <type id="slowroad_out" priority="1" numLanes="2" speed="12.00"/>
    <type id="standardroad" priority="1" numLanes="2" speed="16.00"/>
    <type id="standardroad_in" priority="1" numLanes="2" speed="16.00"/>
    <type id="standardroad_out" priority="1" numLanes="2" speed="16.00"/>

    <edge id=":n1_0" function="internal">
        <lane id=":n1_0_0" index="0" speed="3.65" length="4.67" shape="0.00,1.60 -1.20,0.80 -1.60,0.00 -1.20,-0.80 0.00,-1.60"/>
    </edge>
    <edge id=":n10_0" function="internal">
        <lane id=":n10_0_0" index="0" speed="16.00" length="14.40" shape="181.20,201.60 166.80,201.60"/>
    </edge>
    <edge id=":n10_1" function="internal">
        <lane id=":n10_1_0" index="0" speed="7.80" length="13.44" shape="181.20,201.60 178.07,200.81 175.24,198.76 173.19,195.93 172.40,192.80"/>
    </edge>
    <edge id=":n10_2" function="internal">
        <lane id=":n10_2_0" index="0" speed="3.65" length="4.67" shape="181.20,201.60 180.00,200.80 179.60,200.00 180.00,199.20 181.20,198.40"/>
    </edge>
    <edge id=":n10_3" function="internal">
        <lane id=":n10_3_0" index="0" speed="6.51" length="9.03" shape="175.60,192.80 175.95,195.25 177.00,197.00 178.75,198.05 181.20,198.40"/>
    </edge>
    <edge id=":n10_4" function="internal">
        <lane id=":n10_4_0" index="0" speed="7.80" length="13.44" shape="175.60,192.80 174.81,195.93 172.76,198.76 169.93,200.81 166.80,201.60"/>
    </edge>
    <edge id=":n10_5" function="internal">
        <lane id=":n10_5_0" index="0" speed="3.65" length="4.67" shape="175.60,192.80 174.80,194.00 174.00,194.40 173.20,194.00 172.40,192.80"/>
    </edge>
    <edge id=":n10_6" function="internal">
        <lane id=":n10_6_0" index="0" speed="6.51" length="9.03" shape="166.80,198.40 169.25,198.05 171.00,197.00 172.05,195.25 172.40,192.80"/>
    </edge>
    <edge id=":n10_7" function="internal">
        <lane id=":n10_7_0" index="0" speed="16.00" length="14.40" shape="166.80,198.40 181.20,198.40"/>
    </edge>
    <edge id=":n10_8" function="internal">
        <lane id=":n10_8_0" index="0" speed="3.65" length="4.67" shape="166.80,198.40 168.00,199.20 168.40,200.00 168.00,200.80 166.80,201.60"/>
    </edge>
    <edge id=":n11_0" function="internal">
        <lane id=":n11_0_0" index="0" speed="6.51" length="9.03" shape="247.40,57.20 247.05,54.75 246.00,53.00 244.25,51.95 241.80,51.60"/>
    </edge>
    <edge id=":n11_1" function="internal">
        <lane id=":n11_1_0" index="0" speed="7.80" length="13.44" shape="247.40,57.20 248.19,54.07 250.24,51.24 253.07,49.19 256.20,48.40"/>
    </edge>
    <edge id=":n11_2" function="internal">
        <lane id=":n11_2_0" index="0" speed="3.65" length="4.67" shape="247.40,57.20 248.20,56.00 249.00,55.60 249.80,56.00 250.60,57.20"/>
    </edge>
    <edge id=":n11_3" function="internal">
        <lane id=":n11_3_0" index="0" speed="6.51" length="9.03" shape="256.20,51.60 253.75,51.95 252.00,53.00 250.95,54.75 250.60,57.20"/>
    </edge>
    <edge id=":n11_4" function="internal">
        <lane id=":n11_4_0" index="0" speed="12.00" length="14.40" shape="256.20,51.60 241.80,51.60"/>
    </edge>
    <edge id=":n11_5" function="internal">
        <lane id=":n11_5_0" index="0" speed="3.65" length="4.67" shape="256.20,51.60 255.00,50.80 254.60,50.00 255.00,49.20 256.20,48.40"/>
    </edge>
    <edge id=":n11_6" function="internal">
        <lane id=":n11_6_0" index="0" speed="12.00" length="14.40" shape="241.80,48.40 256.20,48.40"/>
    </edge>
    <edge id=":n11_7" function="internal">
        <lane id=":n11_7_0" index="0" speed="7.80" length="13.44" shape="241.80,48.40 244.93,49.19 247.76,51.24 249.81,54.07 250.60,57.20"/>
    </edge>
    <edge id=":n11_8" function="internal">
        <lane id=":n11_8_0" index="0" speed="3.65" length="4.67" shape="241.80,48.40 243.00,49.20 243.40,50.00 243.00,50.80 241.80,51.60"/>
    </edge>
    <edge id=":n12_0" function="internal">
        <lane id=":n12_0_0" index="0" speed="6.51" length="9.03" shape="247.40,110.40 247.05,107.95 246.00,106.20 244.25,105.15 241.80,104.80"/>
    </edge>
    <edge id=":n12_1" function="internal">
        <lane id=":n12_1_0" index="0" speed="12.00" length="20.80" shape="247.40,110.40 247.40,89.60"/>
    </edge>
    <edge id=":n12_2" function="internal">
        <lane id=":n12_2_0" index="0" speed="8.67" length="7.89" shape="247.40,110.40 247.95,105.15 249.00,102.76"/>
    </edge>
    <edge id=":n12_3" function="internal">
        <lane id=":n12_3_0" index="0" speed="3.65" length="2.34" shape="247.40,110.40 248.20,109.20 249.00,108.80"/>
    </edge>
    <edge id=":n12_18" function="internal">
        <lane id=":n12_18_0" index="0" speed="8.67" length="8.97" shape="249.00,102.76 249.60,101.40 252.35,99.15 256.20,98.40"/>
    </edge>
    <edge id=":n12_19" function="internal">
        <lane id=":n12_19_0" index="0" speed="3.65" length="2.34" shape="249.00,108.80 249.80,109.20 250.60,110.40"/>
    </edge>
    <edge id=":n12_4" function="internal">
        <lane id=":n12_4_0" index="0" speed="6.51" length="9.03" shape="256.20,104.80 253.75,105.15 252.00,106.20 250.95,107.95 250.60,110.40"/>
    </edge>
    <edge id=":n12_5" function="internal">
        <lane id=":n12_5_0" index="0" speed="16.00" length="14.40" shape="256.20,104.80 241.80,104.80"/>
        <lane id=":n12_5_1" index="1" speed="16.00" length="14.40" shape="256.20,101.60 241.80,101.60"/>
    </edge>
    <edge id=":n12_7" function="internal">
        <lane id=":n12_7_0" index="0" speed="8.67" length="5.26" shape="256.20,101.60 252.35,100.85 251.31,100.00"/>
    </edge>
    <edge id=":n12_8" function="internal">
        <lane id=":n12_8_0" index="0" speed="3.65" length="2.34" shape="256.20,101.60 255.00,100.80 254.60,100.00"/>
    </edge>
    <edge id=":n12_20" function="internal">
        <lane id=":n12_20_0" index="0" speed="8.67" length="11.59" shape="251.31,100.00 249.60,98.60 247.95,94.85 247.40,89.60"/>
    </edge>
    <edge id=":n12_21" function="internal">
        <lane id=":n12_21_0" index="0" speed="3.65" length="2.34" shape="254.60,100.00 255.00,99.20 256.20,98.40"/>
    </edge>
    <edge id=":n12_9" function="internal">
        <lane id=":n12_9_0" index="0" speed="6.51" length="9.03" shape="250.60,89.60 250.95,92.05 252.00,93.80 253.75,94.85 256.20,95.20"/>
    </edge>
    <edge id=":n12_10" function="internal">
        <lane id=":n12_10_0" index="0" speed="12.00" length="20.80" shape="250.60,89.60 250.60,110.40"/>
    </edge>
    <edge id=":n12_11" function="internal">
        <lane id=":n12_11_0" index="0" speed="8.67" length="7.89" shape="250.60,89.60 250.05,94.85 249.00,97.24"/>
    </edge>
    <edge id=":n12_12" function="internal">
        <lane id=":n12_12_0" index="0" speed="3.65" length="2.34" shape="250.60,89.60 249.80,90.80 249.00,91.20"/>
    </edge>
    <edge id=":n12_22" function="internal">
        <lane id=":n12_22_0" index="0" speed="8.67" length="8.97" shape="249.00,97.24 248.40,98.60 245.65,100.85 241.80,101.60"/>
    </edge>
    <edge id=":n12_23" function="internal">
        <lane id=":n12_23_0" index="0" speed="3.65" length="2.34" shape="249.00,91.20 248.20,90.80 247.40,89.60"/>
    </edge>
    <edge id=":n12_13" function="internal">
        <lane id=":n12_13_0" index="0" speed="6.51" length="9.03" shape="241.80,95.20 244.25,94.85 246.00,93.80 247.05,92.05 247.40,89.60"/>
    </edge>
    <edge id=":n12_14" function="internal">
        <lane id=":n12_14_0" index="0" speed="16.00" length="14.40" shape="241.80,95.20 256.20,95.20"/>
        <lane id=":n12_14_1" index="1" speed="16.00" length="14.40" shape="241.80,98.40 256.20,98.40"/>
    </edge>
    <edge id=":n12_16" function="internal">
        <lane id=":n12_16_0" index="0" speed="8.67" length="5.26" shape="241.80,98.40 245.65,99.15 246.69,100.00"/>
    </edge>
    <edge id=":n12_17" function="internal">
        <lane id=":n12_17_0" index="0" speed="3.65" length="2.34" shape="241.80,98.40 243.00,99.20 243.40,100.00"/>
    </edge>
    <edge id=":n12_24" function="internal">
        <lane id=":n12_24_0" index="0" speed="8.67" length="11.59" shape="246.69,100.00 248.40,101.40 250.05,105.15 250.60,110.40"/>
    </edge>
    <edge id=":n12_25" function="internal">
        <lane id=":n12_25_0" index="0" speed="3.65" length="2.34" shape="243.40,100.00 243.00,100.80 241.80,101.60"/>
    </edge>
    <edge id=":n13_0" function="internal">
        <lane id=":n13_0_0" index="0" speed="6.51" length="9.03" shape="247.40,132.20 247.05,129.75 246.00,128.00 244.25,126.95 241.80,126.60"/>
    </edge>
    <edge id=":n13_1" function="internal">
        <lane id=":n13_1_0" index="0" speed="12.00" length="14.40" shape="247.40,132.20 247.40,117.80"/>
    </edge>
    <edge id=":n13_2" function="internal">
        <lane id=":n13_2_0" index="0" speed="3.65" length="4.67" shape="247.40,132.20 248.20,131.00 249.00,130.60 249.80,131.00 250.60,132.20"/>
    </edge>
    <edge id=":n13_3" function="internal">
        <lane id=":n13_3_0" index="0" speed="12.00" length="14.40" shape="250.60,117.80 250.60,132.20"/>
    </edge>
    <edge id=":n13_4" function="internal">
        <lane id=":n13_4_0" index="0" speed="7.80" length="13.44" shape="250.60,117.80 249.81,120.93 247.76,123.76 244.93,125.81 241.80,126.60"/>
    </edge>
    <edge id=":n13_5" function="internal">
        <lane id=":n13_5_0" index="0" speed="3.65" length="4.67" shape="250.60,117.80 249.80,119.00 249.00,119.40 248.20,119.00 247.40,117.80"/>
    </edge>
    <edge id=":n13_6" function="internal">
        <lane id=":n13_6_0" index="0" speed="6.51" length="9.03" shape="241.80,123.40 244.25,123.05 246.00,122.00 247.05,120.25 247.40,117.80"/>
    </edge>
    <edge id=":n13_7" function="internal">
        <lane id=":n13_7_0" index="0" speed="7.80" length="13.44" shape="241.80,123.40 244.93,124.19 247.76,126.24 249.81,129.07 250.60,132.20"/>
    </edge>
    <edge id=":n13_8" function="internal">
        <lane id=":n13_8_0" index="0" speed="3.65" length="4.67" shape="241.80,123.40 243.00,124.20 243.40,125.00 243.00,125.80 241.80,126.60"/>
    </edge>
    <edge id=":n14_0" function="internal">
        <lane id=":n14_0_0" index="0" speed="6.08" length="7.74" shape="252.20,151.60 250.10,151.30 248.60,150.40 247.70,148.90 247.40,146.80"/>
    </edge>
    <edge id=":n14_1" function="internal">
        <lane id=":n14_1_0" index="0" speed="3.90" length="2.58" shape="250.60,146.80 250.70,147.50 251.00,148.00 251.50,148.30 252.20,148.40"/>
    </edge>
    <edge id=":n15_0" function="internal">
        <lane id=":n15_0_0" index="0" speed="6.51" length="9.03" shape="322.40,7.20 322.05,4.75 321.00,3.00 319.25,1.95 316.80,1.60"/>
    </edge>
    <edge id=":n15_1" function="internal">
        <lane id=":n15_1_0" index="0" speed="7.80" length="13.44" shape="322.40,7.20 323.19,4.07 325.24,1.24 328.07,-0.81 331.20,-1.60"/>
    </edge>
    <edge id=":n15_2" function="internal">
        <lane id=":n15_2_0" index="0" speed="3.65" length="4.67" shape="322.40,7.20 323.20,6.00 324.00,5.60 324.80,6.00 325.60,7.20"/>
    </edge>
    <edge id=":n15_3" function="internal">
        <lane id=":n15_3_0" index="0" speed="6.51" length="9.03" shape="331.20,1.60 328.75,1.95 327.00,3.00 325.95,4.75 325.60,7.20"/>
    </edge>
    <edge id=":n15_4" function="internal">
        <lane id=":n15_4_0" index="0" speed="16.00" length="14.40" shape="331.20,1.60 316.80,1.60"/>
    </edge>
    <edge id=":n15_5" function="internal">
        <lane id=":n15_5_0" index="0" speed="3.65" length="4.67" shape="331.20,1.60 330.00,0.80 329.60,0.00 330.00,-0.80 331.20,-1.60"/>
    </edge>
    <edge id=":n15_6" function="internal">
        <lane id=":n15_6_0" index="0" speed="16.00" length="14.40" shape="316.80,-1.60 331.20,-1.60"/>
    </edge>
    <edge id=":n15_7" function="internal">
        <lane id=":n15_7_0" index="0" speed="7.80" length="13.44" shape="316.80,-1.60 319.93,-0.81 322.76,1.24 324.81,4.07 325.60,7.20"/>
    </edge>
    <edge id=":n15_8" function="internal">
        <lane id=":n15_8_0" index="0" speed="3.65" length="4.67" shape="316.80,-1.60 318.00,-0.80 318.40,0.00 318.00,0.80 316.80,1.60"/>
    </edge>
    <edge id=":n16_0" function="internal">
        <lane id=":n16_0_0" index="0" speed="6.08" length="7.74" shape="325.60,46.80 325.30,48.90 324.40,50.40 322.90,51.30 320.80,51.60"/>
    </edge>
    <edge id=":n16_1" function="internal">
        <lane id=":n16_1_0" index="0" speed="3.90" length="2.58" shape="320.80,48.40 321.50,48.30 322.00,48.00 322.30,47.50 322.40,46.80"/>
    </edge>
    <edge id=":n17_0" function="internal">
        <lane id=":n17_0_0" index="0" speed="6.51" length="9.03" shape="297.40,110.40 297.05,107.95 296.00,106.20 294.25,105.15 291.80,104.80"/>
    </edge>
    <edge id=":n17_1" function="internal">
        <lane id=":n17_1_0" index="0" speed="8.67" length="16.85" shape="297.40,110.40 297.95,105.15 299.60,101.40 302.35,99.15 306.20,98.40"/>
    </edge>
    <edge id=":n17_2" function="internal">
        <lane id=":n17_2_0" index="0" speed="3.65" length="2.56" shape="297.40,110.40 298.20,109.20 299.00,108.80 299.20,108.90"/>
    </edge>
    <edge id=":n17_11" function="internal">
        <lane id=":n17_11_0" index="0" speed="3.65" length="2.12" shape="299.20,108.90 299.80,109.20 300.60,110.40"/>
    </edge>
    <edge id=":n17_3" function="internal">
        <lane id=":n17_3_0" index="0" speed="6.51" length="9.03" shape="306.20,104.80 303.75,105.15 302.00,106.20 300.95,107.95 300.60,110.40"/>
    </edge>
    <edge id=":n17_4" function="internal">
        <lane id=":n17_4_0" index="0" speed="16.00" length="14.40" shape="306.20,104.80 291.80,104.80"/>
        <lane id=":n17_4_1" index="1" speed="16.00" length="14.40" shape="306.20,101.60 291.80,101.60"/>
    </edge>
    <edge id=":n17_6" function="internal">
        <lane id=":n17_6_0" index="0" speed="3.65" length="2.34" shape="306.20,101.60 305.00,100.80 304.60,100.00"/>
    </edge>
    <edge id=":n17_12" function="internal">
        <lane id=":n17_12_0" index="0" speed="3.65" length="2.34" shape="304.60,100.00 305.00,99.20 306.20,98.40"/>
    </edge>
    <edge id=":n17_7" function="internal">
        <lane id=":n17_7_0" index="0" speed="16.00" length="14.40" shape="291.80,95.20 306.20,95.20"/>
        <lane id=":n17_7_1" index="1" speed="16.00" length="14.40" shape="291.80,98.40 306.20,98.40"/>
    </edge>
    <edge id=":n17_9" function="internal">
        <lane id=":n17_9_0" index="0" speed="8.67" length="5.26" shape="291.80,98.40 295.65,99.15 296.69,100.00"/>
    </edge>
    <edge id=":n17_10" function="internal">
        <lane id=":n17_10_0" index="0" speed="3.65" length="2.34" shape="291.80,98.40 293.00,99.20 293.40,100.00"/>
    </edge>
    <edge id=":n17_13" function="internal">
        <lane id=":n17_13_0" index="0" speed="8.67" length="11.59" shape="296.69,100.00 298.40,101.40 300.05,105.15 300.60,110.40"/>
    </edge>
    <edge id=":n17_14" function="internal">
        <lane id=":n17_14_0" index="0" speed="3.65" length="2.34" shape="293.40,100.00 293.00,100.80 291.80,101.60"/>
    </edge>
    <edge id=":n18_0" function="internal">
        <lane id=":n18_0_0" index="0" speed="6.51" length="9.03" shape="297.40,157.20 297.05,154.75 296.00,153.00 294.25,151.95 291.80,151.60"/>
    </edge>
    <edge id=":n18_1" function="internal">
        <lane id=":n18_1_0" index="0" speed="12.00" length="14.40" shape="297.40,157.20 297.40,142.80"/>
    </edge>
    <edge id=":n18_2" function="internal">
        <lane id=":n18_2_0" index="0" speed="3.65" length="4.67" shape="297.40,157.20 298.20,156.00 299.00,155.60 299.80,156.00 300.60,157.20"/>
    </edge>
    <edge id=":n18_3" function="internal">
        <lane id=":n18_3_0" index="0" speed="12.00" length="14.40" shape="300.60,142.80 300.60,157.20"/>
    </edge>
    <edge id=":n18_4" function="internal">
        <lane id=":n18_4_0" index="0" speed="7.80" length="13.44" shape="300.60,142.80 299.81,145.93 297.76,148.76 294.93,150.81 291.80,151.60"/>
    </edge>
    <edge id=":n18_5" function="internal">
        <lane id=":n18_5_0" index="0" speed="3.65" length="4.67" shape="300.60,142.80 299.80,144.00 299.00,144.40 298.20,144.00 297.40,142.80"/>
    </edge>
    <edge id=":n18_6" function="internal">
        <lane id=":n18_6_0" index="0" speed="6.51" length="9.03" shape="291.80,148.40 294.25,148.05 296.00,147.00 297.05,145.25 297.40,142.80"/>
    </edge>
    <edge id=":n18_7" function="internal">
        <lane id=":n18_7_0" index="0" speed="7.80" length="13.44" shape="291.80,148.40 294.93,149.19 297.76,151.24 299.81,154.07 300.60,157.20"/>
    </edge>
    <edge id=":n18_8" function="internal">
        <lane id=":n18_8_0" index="0" speed="3.65" length="4.67" shape="291.80,148.40 293.00,149.20 293.40,150.00 293.00,150.80 291.80,151.60"/>
    </edge>
    <edge id=":n19_0" function="internal">
        <lane id=":n19_0_0" index="0" speed="16.00" length="14.40" shape="306.20,201.60 291.80,201.60"/>
    </edge>
    <edge id=":n19_1" function="internal">
        <lane id=":n19_1_0" index="0" speed="7.80" length="13.44" shape="306.20,201.60 303.07,200.81 300.24,198.76 298.19,195.93 297.40,192.80"/>
    </edge>
    <edge id=":n19_2" function="internal">
        <lane id=":n19_2_0" index="0" speed="3.65" length="4.67" shape="306.20,201.60 305.00,200.80 304.60,200.00 305.00,199.20 306.20,198.40"/>
    </edge>
    <edge id=":n19_3" function="internal">
        <lane id=":n19_3_0" index="0" speed="6.51" length="9.03" shape="300.60,192.80 300.95,195.25 302.00,197.00 303.75,198.05 306.20,198.40"/>
    </edge>
    <edge id=":n19_4" function="internal">
        <lane id=":n19_4_0" index="0" speed="7.80" length="13.44" shape="300.60,192.80 299.81,195.93 297.76,198.76 294.93,200.81 291.80,201.60"/>
    </edge>
    <edge id=":n19_5" function="internal">
        <lane id=":n19_5_0" index="0" speed="3.65" length="4.67" shape="300.60,192.80 299.80,194.00 299.00,194.40 298.20,194.00 297.40,192.80"/>
    </edge>
    <edge id=":n19_6" function="internal">
        <lane id=":n19_6_0" index="0" speed="6.51" length="9.03" shape="291.80,198.40 294.25,198.05 296.00,197.00 297.05,195.25 297.40,192.80"/>
    </edge>
    <edge id=":n19_7" function="internal">
        <lane id=":n19_7_0" index="0" speed="16.00" length="14.40" shape="291.80,198.40 306.20,198.40"/>
    </edge>
    <edge id=":n19_8" function="internal">
        <lane id=":n19_8_0" index="0" speed="3.65" length="4.67" shape="291.80,198.40 293.00,199.20 293.40,200.00 293.00,200.80 291.80,201.60"/>
    </edge>
    <edge id=":n2_0" function="internal">
        <lane id=":n2_0_0" index="0" speed="3.65" length="4.67" shape="0.00,101.60 -1.20,100.80 -1.60,100.00 -1.20,99.20 0.00,98.40"/>
    </edge>
    <edge id=":n20_0" function="internal">
        <lane id=":n20_0_0" index="0" speed="3.65" length="4.67" shape="399.00,-1.60 400.20,-0.80 400.60,0.00 400.20,0.80 399.00,1.60"/>
    </edge>
    <edge id=":n21_0" function="internal">
        <lane id=":n21_0_0" index="0" speed="3.65" length="4.67" shape="399.00,98.40 400.20,99.20 400.60,100.00 400.20,100.80 399.00,101.60"/>
    </edge>
    <edge id=":n22_0" function="internal">
        <lane id=":n22_0_0" index="0" speed="3.65" length="4.67" shape="399.00,198.40 400.20,199.20 400.60,200.00 400.20,200.80 399.00,201.60"/>
    </edge>
    <edge id=":n3_0" function="internal">
        <lane id=":n3_0_0" index="0" speed="3.65" length="4.67" shape="0.00,201.60 -1.20,200.80 -1.60,200.00 -1.20,199.20 0.00,198.40"/>
    </edge>
    <edge id=":n4_0" function="internal">
        <lane id=":n4_0_0" index="0" speed="6.51" length="9.03" shape="47.40,7.20 47.05,4.75 46.00,3.00 44.25,1.95 41.80,1.60"/>
    </edge>
    <edge id=":n4_1" function="internal">
        <lane id=":n4_1_0" index="0" speed="7.80" length="13.44" shape="47.40,7.20 48.19,4.07 50.24,1.24 53.07,-0.81 56.20,-1.60"/>
    </edge>
    <edge id=":n4_2" function="internal">
        <lane id=":n4_2_0" index="0" speed="3.65" length="4.67" shape="47.40,7.20 48.20,6.00 49.00,5.60 49.80,6.00 50.60,7.20"/>
    </edge>
    <edge id=":n4_3" function="internal">
        <lane id=":n4_3_0" index="0" speed="6.51" length="9.03" shape="56.20,1.60 53.75,1.95 52.00,3.00 50.95,4.75 50.60,7.20"/>
    </edge>
    <edge id=":n4_4" function="internal">
        <lane id=":n4_4_0" index="0" speed="16.00" length="14.40" shape="56.20,1.60 41.80,1.60"/>
    </edge>
    <edge id=":n4_5" function="internal">
        <lane id=":n4_5_0" index="0" speed="3.65" length="4.67" shape="56.20,1.60 55.00,0.80 54.60,0.00 55.00,-0.80 56.20,-1.60"/>
    </edge>
    <edge id=":n4_6" function="internal">
        <lane id=":n4_6_0" index="0" speed="16.00" length="14.40" shape="41.80,-1.60 56.20,-1.60"/>
    </edge>
    <edge id=":n4_7" function="internal">
        <lane id=":n4_7_0" index="0" speed="7.80" length="13.44" shape="41.80,-1.60 44.93,-0.81 47.76,1.24 49.81,4.07 50.60,7.20"/>
    </edge>
    <edge id=":n4_8" function="internal">
        <lane id=":n4_8_0" index="0" speed="3.65" length="4.67" shape="41.80,-1.60 43.00,-0.80 43.40,0.00 43.00,0.80 41.80,1.60"/>
    </edge>
    <edge id=":n5_0" function="internal">
        <lane id=":n5_0_0" index="0" speed="16.00" length="14.40" shape="56.20,104.80 41.80,104.80"/>
        <lane id=":n5_0_1" index="1" speed="16.00" length="14.40" shape="56.20,101.60 41.80,101.60"/>
    </edge>
    <edge id=":n5_2" function="internal">
        <lane id=":n5_2_0" index="0" speed="8.67" length="5.26" shape="56.20,101.60 52.35,100.85 51.31,100.00"/>
    </edge>
    <edge id=":n5_3" function="internal">
        <lane id=":n5_3_0" index="0" speed="3.65" length="2.34" shape="56.20,101.60 55.00,100.80 54.60,100.00"/>
    </edge>
    <edge id=":n5_11" function="internal">
        <lane id=":n5_11_0" index="0" speed="8.67" length="11.59" shape="51.31,100.00 49.60,98.60 47.95,94.85 47.40,89.60"/>
    </edge>
    <edge id=":n5_12" function="internal">
        <lane id=":n5_12_0" index="0" speed="3.65" length="2.34" shape="54.60,100.00 55.00,99.20 56.20,98.40"/>
    </edge>
    <edge id=":n5_4" function="internal">
        <lane id=":n5_4_0" index="0" speed="6.51" length="9.03" shape="50.60,89.60 50.95,92.05 52.00,93.80 53.75,94.85 56.20,95.20"/>
    </edge>
    <edge id=":n5_5" function="internal">
        <lane id=":n5_5_0" index="0" speed="8.67" length="16.85" shape="50.60,89.60 50.05,94.85 48.40,98.60 45.65,100.85 41.80,101.60"/>
    </edge>
    <edge id=":n5_6" function="internal">
        <lane id=":n5_6_0" index="0" speed="3.65" length="2.56" shape="50.60,89.60 49.80,90.80 49.00,91.20 48.80,91.10"/>
    </edge>
    <edge id=":n5_13" function="internal">
        <lane id=":n5_13_0" index="0" speed="3.65" length="2.12" shape="48.80,91.10 48.20,90.80 47.40,89.60"/>
    </edge>
    <edge id=":n5_7" function="internal">
        <lane id=":n5_7_0" index="0" speed="6.51" length="9.03" shape="41.80,95.20 44.25,94.85 46.00,93.80 47.05,92.05 47.40,89.60"/>
    </edge>
    <edge id=":n5_8" function="internal">
        <lane id=":n5_8_0" index="0" speed="16.00" length="14.40" shape="41.80,95.20 56.20,95.20"/>
        <lane id=":n5_8_1" index="1" speed="16.00" length="14.40" shape="41.80,98.40 56.20,98.40"/>
    </edge>
    <edge id=":n5_10" function="internal">
        <lane id=":n5_10_0" index="0" speed="3.65" length="2.34" shape="41.80,98.40 43.00,99.20 43.40,100.00"/>
    </edge>
    <edge id=":n5_14" function="internal">
        <lane id=":n5_14_0" index="0" speed="3.65" length="2.34" shape="43.40,100.00 43.00,100.80 41.80,101.60"/>
    </edge>
    <edge id=":n6_0" function="internal">
        <lane id=":n6_0_0" index="0" speed="6.51" length="9.03" shape="197.40,7.20 197.05,4.75 196.00,3.00 194.25,1.95 191.80,1.60"/>
    </edge>
    <edge id=":n6_1" function="internal">
        <lane id=":n6_1_0" index="0" speed="7.80" length="13.44" shape="197.40,7.20 198.19,4.07 200.24,1.24 203.07,-0.81 206.20,-1.60"/>
    </edge>
    <edge id=":n6_2" function="internal">
        <lane id=":n6_2_0" index="0" speed="3.65" length="4.67" shape="197.40,7.20 198.20,6.00 199.00,5.60 199.80,6.00 200.60,7.20"/>
    </edge>
    <edge id=":n6_3" function="internal">
        <lane id=":n6_3_0" index="0" speed="6.51" length="9.03" shape="206.20,1.60 203.75,1.95 202.00,3.00 200.95,4.75 200.60,7.20"/>
    </edge>
    <edge id=":n6_4" function="internal">
        <lane id=":n6_4_0" index="0" speed="16.00" length="14.40" shape="206.20,1.60 191.80,1.60"/>
    </edge>
    <edge id=":n6_5" function="internal">
        <lane id=":n6_5_0" index="0" speed="3.65" length="4.67" shape="206.20,1.60 205.00,0.80 204.60,0.00 205.00,-0.80 206.20,-1.60"/>
    </edge>
    <edge id=":n6_6" function="internal">
        <lane id=":n6_6_0" index="0" speed="16.00" length="14.40" shape="191.80,-1.60 206.20,-1.60"/>
    </edge>
    <edge id=":n6_7" function="internal">
        <lane id=":n6_7_0" index="0" speed="7.80" length="13.44" shape="191.80,-1.60 194.93,-0.81 197.76,1.24 199.81,4.07 200.60,7.20"/>
    </edge>
    <edge id=":n6_8" function="internal">
        <lane id=":n6_8_0" index="0" speed="3.65" length="4.67" shape="191.80,-1.60 193.00,-0.80 193.40,0.00 193.00,0.80 191.80,1.60"/>
    </edge>
    <edge id=":n7_0" function="internal">
        <lane id=":n7_0_0" index="0" speed="6.08" length="7.74" shape="202.20,51.60 200.10,51.30 198.60,50.40 197.70,48.90 197.40,46.80"/>
    </edge>
    <edge id=":n7_1" function="internal">
        <lane id=":n7_1_0" index="0" speed="3.90" length="2.58" shape="200.60,46.80 200.70,47.50 201.00,48.00 201.50,48.30 202.20,48.40"/>
    </edge>
    <edge id=":n8_0" function="internal">
        <lane id=":n8_0_0" index="0" speed="6.51" length="9.03" shape="172.40,110.40 172.05,107.95 171.00,106.20 169.25,105.15 166.80,104.80"/>
    </edge>
    <edge id=":n8_1" function="internal">
        <lane id=":n8_1_0" index="0" speed="8.67" length="16.85" shape="172.40,110.40 172.95,105.15 174.60,101.40 177.35,99.15 181.20,98.40"/>
    </edge>
    <edge id=":n8_2" function="internal">
        <lane id=":n8_2_0" index="0" speed="3.65" length="2.56" shape="172.40,110.40 173.20,109.20 174.00,108.80 174.20,108.90"/>
    </edge>
    <edge id=":n8_11" function="internal">
        <lane id=":n8_11_0" index="0" speed="3.65" length="2.12" shape="174.20,108.90 174.80,109.20 175.60,110.40"/>
    </edge>
    <edge id=":n8_3" function="internal">
        <lane id=":n8_3_0" index="0" speed="6.51" length="9.03" shape="181.20,104.80 178.75,105.15 177.00,106.20 175.95,107.95 175.60,110.40"/>
    </edge>
    <edge id=":n8_4" function="internal">
        <lane id=":n8_4_0" index="0" speed="16.00" length="14.40" shape="181.20,104.80 166.80,104.80"/>
        <lane id=":n8_4_1" index="1" speed="16.00" length="14.40" shape="181.20,101.60 166.80,101.60"/>
    </edge>
    <edge id=":n8_6" function="internal">
        <lane id=":n8_6_0" index="0" speed="3.65" length="2.34" shape="181.20,101.60 180.00,100.80 179.60,100.00"/>
    </edge>
    <edge id=":n8_12" function="internal">
        <lane id=":n8_12_0" index="0" speed="3.65" length="2.34" shape="179.60,100.00 180.00,99.20 181.20,98.40"/>
    </edge>
    <edge id=":n8_7" function="internal">
        <lane id=":n8_7_0" index="0" speed="16.00" length="14.40" shape="166.80,95.20 181.20,95.20"/>
        <lane id=":n8_7_1" index="1" speed="16.00" length="14.40" shape="166.80,98.40 181.20,98.40"/>
    </edge>
    <edge id=":n8_9" function="internal">
        <lane id=":n8_9_0" index="0" speed="8.67" length="5.26" shape="166.80,98.40 170.65,99.15 171.69,100.00"/>
    </edge>
    <edge id=":n8_10" function="internal">
        <lane id=":n8_10_0" index="0" speed="3.65" length="2.34" shape="166.80,98.40 168.00,99.20 168.40,100.00"/>
    </edge>
    <edge id=":n8_13" function="internal">
        <lane id=":n8_13_0" index="0" speed="8.67" length="11.59" shape="171.69,100.00 173.40,101.40 175.05,105.15 175.60,110.40"/>
    </edge>
    <edge id=":n8_14" function="internal">
        <lane id=":n8_14_0" index="0" speed="3.65" length="2.34" shape="168.40,100.00 168.00,100.80 166.80,101.60"/>
    </edge>
    <edge id=":n9_0" function="internal">
        <lane id=":n9_0_0" index="0" speed="16.00" length="14.40" shape="172.40,132.20 172.40,117.80"/>
    </edge>
    <edge id=":n9_1" function="internal">
        <lane id=":n9_1_0" index="0" speed="7.80" length="13.44" shape="172.40,132.20 173.19,129.07 175.24,126.24 178.07,124.19 181.20,123.40"/>
    </edge>
    <edge id=":n9_2" function="internal">