<?xml version="1.0" encoding="UTF-8"?>

<!-- generated on 09/23/19 09:32:46 by Eclipse SUMO netedit Version 1.3.1
<configuration xmlns:xsi="http://www.w3.org/2001/XMLSchema-instance" xsi:noNamespaceSchemaLocation="http://sumo.dlr.de/xsd/netconvertConfiguration.xsd">

    <input>
        <sumo-net-file value="C:\Users\Emil\Desktop\AAUP7\SUMOfiles\ExpeirmentsNetworks\MainRoadRerouteNet.net.xml"/>
    </input>

    <output>
        <output-file value="C:\Users\Emil\Desktop\AAUP7\SUMOfiles\ExpeirmentsNetworks\MainRoadRerouteNet.net.xml"/>
    </output>

    <processing>
        <geometry.max-grade.fix value="false"/>
        <offset.disable-normalization value="true"/>
        <opposites.guess.fix-lengths value="true"/>
        <lefthand value="false"/>
    </processing>

    <junctions>
        <no-turnarounds value="true"/>
        <junctions.corner-detail value="5"/>
        <junctions.limit-turn-speed value="5.5"/>
        <rectangular-lane-cut value="false"/>
    </junctions>

    <pedestrian>
        <walkingareas value="false"/>
    </pedestrian>

</configuration>
-->

<net version="1.3" junctionCornerDetail="5" limitTurnSpeed="5.50" xmlns:xsi="http://www.w3.org/2001/XMLSchema-instance" xsi:noNamespaceSchemaLocation="http://sumo.dlr.de/xsd/net_file.xsd">

    <location netOffset="-100.00,-100.00" convBoundary="0.00,0.00,300.00,200.00" origBoundary="100.00,100.00,400.00,300.00" projParameter="!"/>

    <type id="slowroad" priority="1" numLanes="2" speed="12.00"/>
    <type id="slowroad_in" priority="1" numLanes="2" speed="12.00"/>
    <type id="slowroad_out" priority="1" numLanes="2" speed="12.00"/>
    <type id="standardroad" priority="1" numLanes="2" speed="16.00"/>
    <type id="standardroad_in" priority="1" numLanes="2" speed="16.00"/>
    <type id="standardroad_out" priority="1" numLanes="2" speed="16.00"/>

    <edge id=":n1_0" function="internal">
        <lane id=":n1_0_0" index="0" speed="3.65" length="4.67" shape="0.00,1.60 -1.20,0.80 -1.60,0.00 -1.20,-0.80 0.00,-1.60"/>
    </edge>
    <edge id=":n10_0" function="internal">
        <lane id=":n10_0_0" index="0" speed="16.00" length="14.40" shape="82.20,201.60 67.80,201.60"/>
    </edge>
    <edge id=":n10_1" function="internal">
        <lane id=":n10_1_0" index="0" speed="7.80" length="13.44" shape="82.20,201.60 79.07,200.81 76.24,198.76 74.19,195.93 73.40,192.80"/>
    </edge>
    <edge id=":n10_2" function="internal">
        <lane id=":n10_2_0" index="0" speed="3.65" length="4.67" shape="82.20,201.60 81.00,200.80 80.60,200.00 81.00,199.20 82.20,198.40"/>
    </edge>
    <edge id=":n10_3" function="internal">
        <lane id=":n10_3_0" index="0" speed="6.51" length="9.03" shape="76.60,192.80 76.95,195.25 78.00,197.00 79.75,198.05 82.20,198.40"/>
    </edge>
    <edge id=":n10_4" function="internal">
        <lane id=":n10_4_0" index="0" speed="7.80" length="13.44" shape="76.60,192.80 75.81,195.93 73.76,198.76 70.93,200.81 67.80,201.60"/>
    </edge>
    <edge id=":n10_5" function="internal">
        <lane id=":n10_5_0" index="0" speed="3.65" length="4.67" shape="76.60,192.80 75.80,194.00 75.00,194.40 74.20,194.00 73.40,192.80"/>
    </edge>
    <edge id=":n10_6" function="internal">
        <lane id=":n10_6_0" index="0" speed="6.51" length="9.03" shape="67.80,198.40 70.25,198.05 72.00,197.00 73.05,195.25 73.40,192.80"/>
    </edge>
    <edge id=":n10_7" function="internal">
        <lane id=":n10_7_0" index="0" speed="16.00" length="14.40" shape="67.80,198.40 82.20,198.40"/>
    </edge>
    <edge id=":n10_8" function="internal">
        <lane id=":n10_8_0" index="0" speed="3.65" length="4.67" shape="67.80,198.40 69.00,199.20 69.40,200.00 69.00,200.80 67.80,201.60"/>
    </edge>
    <edge id=":n11_0" function="internal">
        <lane id=":n11_0_0" index="0" speed="6.51" length="9.03" shape="148.40,57.20 148.05,54.75 147.00,53.00 145.25,51.95 142.80,51.60"/>
    </edge>
    <edge id=":n11_1" function="internal">
        <lane id=":n11_1_0" index="0" speed="7.80" length="13.44" shape="148.40,57.20 149.19,54.07 151.24,51.24 154.07,49.19 157.20,48.40"/>
    </edge>
    <edge id=":n11_2" function="internal">
        <lane id=":n11_2_0" index="0" speed="3.65" length="4.67" shape="148.40,57.20 149.20,56.00 150.00,55.60 150.80,56.00 151.60,57.20"/>
    </edge>
    <edge id=":n11_3" function="internal">
        <lane id=":n11_3_0" index="0" speed="6.51" length="9.03" shape="157.20,51.60 154.75,51.95 153.00,53.00 151.95,54.75 151.60,57.20"/>
    </edge>
    <edge id=":n11_4" function="internal">
        <lane id=":n11_4_0" index="0" speed="12.00" length="14.40" shape="157.20,51.60 142.80,51.60"/>
    </edge>
    <edge id=":n11_5" function="internal">
        <lane id=":n11_5_0" index="0" speed="3.65" length="4.67" shape="157.20,51.60 156.00,50.80 155.60,50.00 156.00,49.20 157.20,48.40"/>
    </edge>
    <edge id=":n11_6" function="internal">
        <lane id=":n11_6_0" index="0" speed="12.00" length="14.40" shape="142.80,48.40 157.20,48.40"/>
    </edge>
    <edge id=":n11_7" function="internal">
        <lane id=":n11_7_0" index="0" speed="7.80" length="13.44" shape="142.80,48.40 145.93,49.19 148.76,51.24 150.81,54.07 151.60,57.20"/>
    </edge>
    <edge id=":n11_8" function="internal">
        <lane id=":n11_8_0" index="0" speed="3.65" length="4.67" shape="142.80,48.40 144.00,49.20 144.40,50.00 144.00,50.80 142.80,51.60"/>
    </edge>
    <edge id=":n12_0" function="internal">
        <lane id=":n12_0_0" index="0" speed="6.51" length="9.03" shape="148.40,110.40 148.05,107.95 147.00,106.20 145.25,105.15 142.80,104.80"/>
    </edge>
    <edge id=":n12_1" function="internal">
        <lane id=":n12_1_0" index="0" speed="12.00" length="20.80" shape="148.40,110.40 148.40,89.60"/>
    </edge>
    <edge id=":n12_2" function="internal">
        <lane id=":n12_2_0" index="0" speed="8.67" length="7.89" shape="148.40,110.40 148.95,105.15 150.00,102.76"/>
    </edge>
    <edge id=":n12_3" function="internal">
        <lane id=":n12_3_0" index="0" speed="3.65" length="2.34" shape="148.40,110.40 149.20,109.20 150.00,108.80"/>
    </edge>
    <edge id=":n12_18" function="internal">
        <lane id=":n12_18_0" index="0" speed="8.67" length="8.97" shape="150.00,102.76 150.60,101.40 153.35,99.15 157.20,98.40"/>
    </edge>
    <edge id=":n12_19" function="internal">
        <lane id=":n12_19_0" index="0" speed="3.65" length="2.34" shape="150.00,108.80 150.80,109.20 151.60,110.40"/>
    </edge>
    <edge id=":n12_4" function="internal">
        <lane id=":n12_4_0" index="0" speed="6.51" length="9.03" shape="157.20,104.80 154.75,105.15 153.00,106.20 151.95,107.95 151.60,110.40"/>
    </edge>
    <edge id=":n12_5" function="internal">
        <lane id=":n12_5_0" index="0" speed="16.00" length="14.40" shape="157.20,104.80 142.80,104.80"/>
        <lane id=":n12_5_1" index="1" speed="16.00" length="14.40" shape="157.20,101.60 142.80,101.60"/>
    </edge>
    <edge id=":n12_7" function="internal">
        <lane id=":n12_7_0" index="0" speed="8.67" length="5.26" shape="157.20,101.60 153.35,100.85 152.31,100.00"/>
    </edge>
    <edge id=":n12_8" function="internal">
        <lane id=":n12_8_0" index="0" speed="3.65" length="2.34" shape="157.20,101.60 156.00,100.80 155.60,100.00"/>
    </edge>
    <edge id=":n12_20" function="internal">
        <lane id=":n12_20_0" index="0" speed="8.67" length="11.59" shape="152.31,100.00 150.60,98.60 148.95,94.85 148.40,89.60"/>
    </edge>
    <edge id=":n12_21" function="internal">
        <lane id=":n12_21_0" index="0" speed="3.65" length="2.34" shape="155.60,100.00 156.00,99.20 157.20,98.40"/>
    </edge>
    <edge id=":n12_9" function="internal">
        <lane id=":n12_9_0" index="0" speed="6.51" length="9.03" shape="151.60,89.60 151.95,92.05 153.00,93.80 154.75,94.85 157.20,95.20"/>
    </edge>
    <edge id=":n12_10" function="internal">
        <lane id=":n12_10_0" index="0" speed="12.00" length="20.80" shape="151.60,89.60 151.60,110.40"/>
    </edge>
    <edge id=":n12_11" function="internal">
        <lane id=":n12_11_0" index="0" speed="8.67" length="7.89" shape="151.60,89.60 151.05,94.85 150.00,97.24"/>
    </edge>
    <edge id=":n12_12" function="internal">
        <lane id=":n12_12_0" index="0" speed="3.65" length="2.34" shape="151.60,89.60 150.80,90.80 150.00,91.20"/>
    </edge>
    <edge id=":n12_22" function="internal">
        <lane id=":n12_22_0" index="0" speed="8.67" length="8.97" shape="150.00,97.24 149.40,98.60 146.65,100.85 142.80,101.60"/>
    </edge>
    <edge id=":n12_23" function="internal">
        <lane id=":n12_23_0" index="0" speed="3.65" length="2.34" shape="150.00,91.20 149.20,90.80 148.40,89.60"/>
    </edge>
    <edge id=":n12_13" function="internal">
        <lane id=":n12_13_0" index="0" speed="6.51" length="9.03" shape="142.80,95.20 145.25,94.85 147.00,93.80 148.05,92.05 148.40,89.60"/>
    </edge>
    <edge id=":n12_14" function="internal">
        <lane id=":n12_14_0" index="0" speed="16.00" length="14.40" shape="142.80,95.20 157.20,95.20"/>
        <lane id=":n12_14_1" index="1" speed="16.00" length="14.40" shape="142.80,98.40 157.20,98.40"/>
    </edge>
    <edge id=":n12_16" function="internal">
        <lane id=":n12_16_0" index="0" speed="8.67" length="5.26" shape="142.80,98.40 146.65,99.15 147.69,100.00"/>
    </edge>
    <edge id=":n12_17" function="internal">
        <lane id=":n12_17_0" index="0" speed="3.65" length="2.34" shape="142.80,98.40 144.00,99.20 144.40,100.00"/>
    </edge>
    <edge id=":n12_24" function="internal">
        <lane id=":n12_24_0" index="0" speed="8.67" length="11.59" shape="147.69,100.00 149.40,101.40 151.05,105.15 151.60,110.40"/>
    </edge>
    <edge id=":n12_25" function="internal">
        <lane id=":n12_25_0" index="0" speed="3.65" length="2.34" shape="144.40,100.00 144.00,100.80 142.80,101.60"/>
    </edge>
    <edge id=":n13_0" function="internal">
        <lane id=":n13_0_0" index="0" speed="6.51" length="9.03" shape="148.40,132.20 148.05,129.75 147.00,128.00 145.25,126.95 142.80,126.60"/>
    </edge>
    <edge id=":n13_1" function="internal">
        <lane id=":n13_1_0" index="0" speed="12.00" length="14.40" shape="148.40,132.20 148.40,117.80"/>
    </edge>
    <edge id=":n13_2" function="internal">
        <lane id=":n13_2_0" index="0" speed="3.65" length="4.67" shape="148.40,132.20 149.20,131.00 150.00,130.60 150.80,131.00 151.60,132.20"/>
    </edge>
    <edge id=":n13_3" function="internal">
        <lane id=":n13_3_0" index="0" speed="12.00" length="14.40" shape="151.60,117.80 151.60,132.20"/>
    </edge>
    <edge id=":n13_4" function="internal">
        <lane id=":n13_4_0" index="0" speed="7.80" length="13.44" shape="151.60,117.80 150.81,120.93 148.76,123.76 145.93,125.81 142.80,126.60"/>
    </edge>
    <edge id=":n13_5" function="internal">
        <lane id=":n13_5_0" index="0" speed="3.65" length="4.67" shape="151.60,117.80 150.80,119.00 150.00,119.40 149.20,119.00 148.40,117.80"/>
    </edge>
    <edge id=":n13_6" function="internal">
        <lane id=":n13_6_0" index="0" speed="6.51" length="9.03" shape="142.80,123.40 145.25,123.05 147.00,122.00 148.05,120.25 148.40,117.80"/>
    </edge>
    <edge id=":n13_7" function="internal">
        <lane id=":n13_7_0" index="0" speed="7.80" length="13.44" shape="142.80,123.40 145.93,124.19 148.76,126.24 150.81,129.07 151.60,132.20"/>
    </edge>
    <edge id=":n13_8" function="internal">
        <lane id=":n13_8_0" index="0" speed="3.65" length="4.67" shape="142.80,123.40 144.00,124.20 144.40,125.00 144.00,125.80 142.80,126.60"/>
    </edge>
    <edge id=":n14_0" function="internal">
        <lane id=":n14_0_0" index="0" speed="6.08" length="7.74" shape="153.20,151.60 151.10,151.30 149.60,150.40 148.70,148.90 148.40,146.80"/>
    </edge>
    <edge id=":n14_1" function="internal">
        <lane id=":n14_1_0" index="0" speed="3.90" length="2.58" shape="151.60,146.80 151.70,147.50 152.00,148.00 152.50,148.30 153.20,148.40"/>
    </edge>
    <edge id=":n15_0" function="internal">
        <lane id=":n15_0_0" index="0" speed="6.51" length="9.03" shape="223.40,7.20 223.05,4.75 222.00,3.00 220.25,1.95 217.80,1.60"/>
    </edge>
    <edge id=":n15_1" function="internal">
        <lane id=":n15_1_0" index="0" speed="7.80" length="13.44" shape="223.40,7.20 224.19,4.07 226.24,1.24 229.07,-0.81 232.20,-1.60"/>
    </edge>
    <edge id=":n15_2" function="internal">
        <lane id=":n15_2_0" index="0" speed="3.65" length="4.67" shape="223.40,7.20 224.20,6.00 225.00,5.60 225.80,6.00 226.60,7.20"/>
    </edge>
    <edge id=":n15_3" function="internal">
        <lane id=":n15_3_0" index="0" speed="6.51" length="9.03" shape="232.20,1.60 229.75,1.95 228.00,3.00 226.95,4.75 226.60,7.20"/>
    </edge>
    <edge id=":n15_4" function="internal">
        <lane id=":n15_4_0" index="0" speed="16.00" length="14.40" shape="232.20,1.60 217.80,1.60"/>
    </edge>
    <edge id=":n15_5" function="internal">
        <lane id=":n15_5_0" index="0" speed="3.65" length="4.67" shape="232.20,1.60 231.00,0.80 230.60,0.00 231.00,-0.80 232.20,-1.60"/>
    </edge>
    <edge id=":n15_6" function="internal">
        <lane id=":n15_6_0" index="0" speed="16.00" length="14.40" shape="217.80,-1.60 232.20,-1.60"/>
    </edge>
    <edge id=":n15_7" function="internal">
        <lane id=":n15_7_0" index="0" speed="7.80" length="13.44" shape="217.80,-1.60 220.93,-0.81 223.76,1.24 225.81,4.07 226.60,7.20"/>
    </edge>
    <edge id=":n15_8" function="internal">
        <lane id=":n15_8_0" index="0" speed="3.65" length="4.67" shape="217.80,-1.60 219.00,-0.80 219.40,0.00 219.00,0.80 217.80,1.60"/>
    </edge>
    <edge id=":n16_0" function="internal">
        <lane id=":n16_0_0" index="0" speed="6.08" length="7.74" shape="226.60,46.80 226.30,48.90 225.40,50.40 223.90,51.30 221.80,51.60"/>
    </edge>
    <edge id=":n16_1" function="internal">
        <lane id=":n16_1_0" index="0" speed="3.90" length="2.58" shape="221.80,48.40 222.50,48.30 223.00,48.00 223.30,47.50 223.40,46.80"/>
    </edge>
    <edge id=":n17_0" function="internal">
        <lane id=":n17_0_0" index="0" speed="6.51" length="9.03" shape="198.40,110.40 198.05,107.95 197.00,106.20 195.25,105.15 192.80,104.80"/>
    </edge>
    <edge id=":n17_1" function="internal">
        <lane id=":n17_1_0" index="0" speed="8.67" length="16.85" shape="198.40,110.40 198.95,105.15 200.60,101.40 203.35,99.15 207.20,98.40"/>
    </edge>
    <edge id=":n17_2" function="internal">
        <lane id=":n17_2_0" index="0" speed="3.65" length="2.56" shape="198.40,110.40 199.20,109.20 200.00,108.80 200.20,108.90"/>
    </edge>
    <edge id=":n17_11" function="internal">
        <lane id=":n17_11_0" index="0" speed="3.65" length="2.12" shape="200.20,108.90 200.80,109.20 201.60,110.40"/>
    </edge>
    <edge id=":n17_3" function="internal">
        <lane id=":n17_3_0" index="0" speed="6.51" length="9.03" shape="207.20,104.80 204.75,105.15 203.00,106.20 201.95,107.95 201.60,110.40"/>
    </edge>
    <edge id=":n17_4" function="internal">
        <lane id=":n17_4_0" index="0" speed="16.00" length="14.40" shape="207.20,104.80 192.80,104.80"/>
        <lane id=":n17_4_1" index="1" speed="16.00" length="14.40" shape="207.20,101.60 192.80,101.60"/>
    </edge>
    <edge id=":n17_6" function="internal">
        <lane id=":n17_6_0" index="0" speed="3.65" length="2.34" shape="207.20,101.60 206.00,100.80 205.60,100.00"/>
    </edge>
    <edge id=":n17_12" function="internal">
        <lane id=":n17_12_0" index="0" speed="3.65" length="2.34" shape="205.60,100.00 206.00,99.20 207.20,98.40"/>
    </edge>
    <edge id=":n17_7" function="internal">
        <lane id=":n17_7_0" index="0" speed="16.00" length="14.40" shape="192.80,95.20 207.20,95.20"/>
        <lane id=":n17_7_1" index="1" speed="16.00" length="14.40" shape="192.80,98.40 207.20,98.40"/>
    </edge>
    <edge id=":n17_9" function="internal">
        <lane id=":n17_9_0" index="0" speed="8.67" length="5.26" shape="192.80,98.40 196.65,99.15 197.69,100.00"/>
    </edge>
    <edge id=":n17_10" function="internal">
        <lane id=":n17_10_0" index="0" speed="3.65" length="2.34" shape="192.80,98.40 194.00,99.20 194.40,100.00"/>
    </edge>
    <edge id=":n17_13" function="internal">
        <lane id=":n17_13_0" index="0" speed="8.67" length="11.59" shape="197.69,100.00 199.40,101.40 201.05,105.15 201.60,110.40"/>
    </edge>
    <edge id=":n17_14" function="internal">
        <lane id=":n17_14_0" index="0" speed="3.65" length="2.34" shape="194.40,100.00 194.00,100.80 192.80,101.60"/>
    </edge>
    <edge id=":n18_0" function="internal">
        <lane id=":n18_0_0" index="0" speed="6.51" length="9.03" shape="198.40,157.20 198.05,154.75 197.00,153.00 195.25,151.95 192.80,151.60"/>
    </edge>
    <edge id=":n18_1" function="internal">
        <lane id=":n18_1_0" index="0" speed="12.00" length="14.40" shape="198.40,157.20 198.40,142.80"/>
    </edge>
    <edge id=":n18_2" function="internal">
        <lane id=":n18_2_0" index="0" speed="3.65" length="4.67" shape="198.40,157.20 199.20,156.00 200.00,155.60 200.80,156.00 201.60,157.20"/>
    </edge>
    <edge id=":n18_3" function="internal">
        <lane id=":n18_3_0" index="0" speed="12.00" length="14.40" shape="201.60,142.80 201.60,157.20"/>
    </edge>
    <edge id=":n18_4" function="internal">
        <lane id=":n18_4_0" index="0" speed="7.80" length="13.44" shape="201.60,142.80 200.81,145.93 198.76,148.76 195.93,150.81 192.80,151.60"/>
    </edge>
    <edge id=":n18_5" function="internal">
        <lane id=":n18_5_0" index="0" speed="3.65" length="4.67" shape="201.60,142.80 200.80,144.00 200.00,144.40 199.20,144.00 198.40,142.80"/>
    </edge>
    <edge id=":n18_6" function="internal">
        <lane id=":n18_6_0" index="0" speed="6.51" length="9.03" shape="192.80,148.40 195.25,148.05 197.00,147.00 198.05,145.25 198.40,142.80"/>
    </edge>
    <edge id=":n18_7" function="internal">
        <lane id=":n18_7_0" index="0" speed="7.80" length="13.44" shape="192.80,148.40 195.93,149.19 198.76,151.24 200.81,154.07 201.60,157.20"/>
    </edge>
    <edge id=":n18_8" function="internal">
        <lane id=":n18_8_0" index="0" speed="3.65" length="4.67" shape="192.80,148.40 194.00,149.20 194.40,150.00 194.00,150.80 192.80,151.60"/>
    </edge>
    <edge id=":n19_0" function="internal">
        <lane id=":n19_0_0" index="0" speed="16.00" length="14.40" shape="207.20,201.60 192.80,201.60"/>
    </edge>
    <edge id=":n19_1" function="internal">
        <lane id=":n19_1_0" index="0" speed="7.80" length="13.44" shape="207.20,201.60 204.07,200.81 201.24,198.76 199.19,195.93 198.40,192.80"/>
    </edge>
    <edge id=":n19_2" function="internal">
        <lane id=":n19_2_0" index="0" speed="3.65" length="4.67" shape="207.20,201.60 206.00,200.80 205.60,200.00 206.00,199.20 207.20,198.40"/>
    </edge>
    <edge id=":n19_3" function="internal">
        <lane id=":n19_3_0" index="0" speed="6.51" length="9.03" shape="201.60,192.80 201.95,195.25 203.00,197.00 204.75,198.05 207.20,198.40"/>
    </edge>
    <edge id=":n19_4" function="internal">
        <lane id=":n19_4_0" index="0" speed="7.80" length="13.44" shape="201.60,192.80 200.81,195.93 198.76,198.76 195.93,200.81 192.80,201.60"/>
    </edge>
    <edge id=":n19_5" function="internal">
        <lane id=":n19_5_0" index="0" speed="3.65" length="4.67" shape="201.60,192.80 200.80,194.00 200.00,194.40 199.20,194.00 198.40,192.80"/>
    </edge>
    <edge id=":n19_6" function="internal">
        <lane id=":n19_6_0" index="0" speed="6.51" length="9.03" shape="192.80,198.40 195.25,198.05 197.00,197.00 198.05,195.25 198.40,192.80"/>
    </edge>
    <edge id=":n19_7" function="internal">
        <lane id=":n19_7_0" index="0" speed="16.00" length="14.40" shape="192.80,198.40 207.20,198.40"/>
    </edge>
    <edge id=":n19_8" function="internal">
        <lane id=":n19_8_0" index="0" speed="3.65" length="4.67" shape="192.80,198.40 194.00,199.20 194.40,200.00 194.00,200.80 192.80,201.60"/>
    </edge>
    <edge id=":n2_0" function="internal">
        <lane id=":n2_0_0" index="0" speed="3.65" length="4.67" shape="0.00,101.60 -1.20,100.80 -1.60,100.00 -1.20,99.20 0.00,98.40"/>
    </edge>
    <edge id=":n20_0" function="internal">
        <lane id=":n20_0_0" index="0" speed="3.65" length="4.67" shape="300.00,-1.60 301.20,-0.80 301.60,0.00 301.20,0.80 300.00,1.60"/>
    </edge>
    <edge id=":n21_0" function="internal">
        <lane id=":n21_0_0" index="0" speed="3.65" length="4.67" shape="300.00,98.40 301.20,99.20 301.60,100.00 301.20,100.80 300.00,101.60"/>
    </edge>
    <edge id=":n22_0" function="internal">
        <lane id=":n22_0_0" index="0" speed="3.65" length="4.67" shape="300.00,198.40 301.20,199.20 301.60,200.00 301.20,200.80 300.00,201.60"/>
    </edge>
    <edge id=":n3_0" function="internal">
        <lane id=":n3_0_0" index="0" speed="3.65" length="4.67" shape="0.00,201.60 -1.20,200.80 -1.60,200.00 -1.20,199.20 0.00,198.40"/>
    </edge>
    <edge id=":n4_0" function="internal">
        <lane id=":n4_0_0" index="0" speed="6.51" length="9.03" shape="48.40,7.20 48.05,4.75 47.00,3.00 45.25,1.95 42.80,1.60"/>
    </edge>
    <edge id=":n4_1" function="internal">
        <lane id=":n4_1_0" index="0" speed="7.80" length="13.44" shape="48.40,7.20 49.19,4.07 51.24,1.24 54.07,-0.81 57.20,-1.60"/>
    </edge>
    <edge id=":n4_2" function="internal">
        <lane id=":n4_2_0" index="0" speed="3.65" length="4.67" shape="48.40,7.20 49.20,6.00 50.00,5.60 50.80,6.00 51.60,7.20"/>
    </edge>
    <edge id=":n4_3" function="internal">
        <lane id=":n4_3_0" index="0" speed="6.51" length="9.03" shape="57.20,1.60 54.75,1.95 53.00,3.00 51.95,4.75 51.60,7.20"/>
    </edge>
    <edge id=":n4_4" function="internal">
        <lane id=":n4_4_0" index="0" speed="16.00" length="14.40" shape="57.20,1.60 42.80,1.60"/>
    </edge>
    <edge id=":n4_5" function="internal">
        <lane id=":n4_5_0" index="0" speed="3.65" length="4.67" shape="57.20,1.60 56.00,0.80 55.60,0.00 56.00,-0.80 57.20,-1.60"/>
    </edge>
    <edge id=":n4_6" function="internal">
        <lane id=":n4_6_0" index="0" speed="16.00" length="14.40" shape="42.80,-1.60 57.20,-1.60"/>
    </edge>
    <edge id=":n4_7" function="internal">
        <lane id=":n4_7_0" index="0" speed="7.80" length="13.44" shape="42.80,-1.60 45.93,-0.81 48.76,1.24 50.81,4.07 51.60,7.20"/>
    </edge>
    <edge id=":n4_8" function="internal">
        <lane id=":n4_8_0" index="0" speed="3.65" length="4.67" shape="42.80,-1.60 44.00,-0.80 44.40,0.00 44.00,0.80 42.80,1.60"/>
    </edge>
    <edge id=":n5_0" function="internal">
        <lane id=":n5_0_0" index="0" speed="16.00" length="14.40" shape="57.20,104.80 42.80,104.80"/>
        <lane id=":n5_0_1" index="1" speed="16.00" length="14.40" shape="57.20,101.60 42.80,101.60"/>
    </edge>
    <edge id=":n5_2" function="internal">
        <lane id=":n5_2_0" index="0" speed="8.67" length="5.26" shape="57.20,101.60 53.35,100.85 52.31,100.00"/>
    </edge>
    <edge id=":n5_3" function="internal">
        <lane id=":n5_3_0" index="0" speed="3.65" length="2.34" shape="57.20,101.60 56.00,100.80 55.60,100.00"/>
    </edge>
    <edge id=":n5_11" function="internal">
        <lane id=":n5_11_0" index="0" speed="8.67" length="11.59" shape="52.31,100.00 50.60,98.60 48.95,94.85 48.40,89.60"/>
    </edge>
    <edge id=":n5_12" function="internal">
        <lane id=":n5_12_0" index="0" speed="3.65" length="2.34" shape="55.60,100.00 56.00,99.20 57.20,98.40"/>
    </edge>
    <edge id=":n5_4" function="internal">
        <lane id=":n5_4_0" index="0" speed="6.51" length="9.03" shape="51.60,89.60 51.95,92.05 53.00,93.80 54.75,94.85 57.20,95.20"/>
    </edge>
    <edge id=":n5_5" function="internal">
        <lane id=":n5_5_0" index="0" speed="8.67" length="16.85" shape="51.60,89.60 51.05,94.85 49.40,98.60 46.65,100.85 42.80,101.60"/>
    </edge>
    <edge id=":n5_6" function="internal">
        <lane id=":n5_6_0" index="0" speed="3.65" length="2.56" shape="51.60,89.60 50.80,90.80 50.00,91.20 49.80,91.10"/>
    </edge>
    <edge id=":n5_13" function="internal">
        <lane id=":n5_13_0" index="0" speed="3.65" length="2.12" shape="49.80,91.10 49.20,90.80 48.40,89.60"/>
    </edge>
    <edge id=":n5_7" function="internal">
        <lane id=":n5_7_0" index="0" speed="6.51" length="9.03" shape="42.80,95.20 45.25,94.85 47.00,93.80 48.05,92.05 48.40,89.60"/>
    </edge>
    <edge id=":n5_8" function="internal">
        <lane id=":n5_8_0" index="0" speed="16.00" length="14.40" shape="42.80,95.20 57.20,95.20"/>
        <lane id=":n5_8_1" index="1" speed="16.00" length="14.40" shape="42.80,98.40 57.20,98.40"/>
    </edge>
    <edge id=":n5_10" function="internal">
        <lane id=":n5_10_0" index="0" speed="3.65" length="2.34" shape="42.80,98.40 44.00,99.20 44.40,100.00"/>
    </edge>
    <edge id=":n5_14" function="internal">
        <lane id=":n5_14_0" index="0" speed="3.65" length="2.34" shape="44.40,100.00 44.00,100.80 42.80,101.60"/>
    </edge>
    <edge id=":n6_0" function="internal">
        <lane id=":n6_0_0" index="0" speed="6.51" length="9.03" shape="98.40,7.20 98.05,4.75 97.00,3.00 95.25,1.95 92.80,1.60"/>
    </edge>
    <edge id=":n6_1" function="internal">
        <lane id=":n6_1_0" index="0" speed="7.80" length="13.44" shape="98.40,7.20 99.19,4.07 101.24,1.24 104.07,-0.81 107.20,-1.60"/>
    </edge>
    <edge id=":n6_2" function="internal">
        <lane id=":n6_2_0" index="0" speed="3.65" length="4.67" shape="98.40,7.20 99.20,6.00 100.00,5.60 100.80,6.00 101.60,7.20"/>
    </edge>
    <edge id=":n6_3" function="internal">
        <lane id=":n6_3_0" index="0" speed="6.51" length="9.03" shape="107.20,1.60 104.75,1.95 103.00,3.00 101.95,4.75 101.60,7.20"/>
    </edge>
    <edge id=":n6_4" function="internal">
        <lane id=":n6_4_0" index="0" speed="16.00" length="14.40" shape="107.20,1.60 92.80,1.60"/>
    </edge>
    <edge id=":n6_5" function="internal">
        <lane id=":n6_5_0" index="0" speed="3.65" length="4.67" shape="107.20,1.60 106.00,0.80 105.60,0.00 106.00,-0.80 107.20,-1.60"/>
    </edge>
    <edge id=":n6_6" function="internal">
        <lane id=":n6_6_0" index="0" speed="16.00" length="14.40" shape="92.80,-1.60 107.20,-1.60"/>
    </edge>
    <edge id=":n6_7" function="internal">
        <lane id=":n6_7_0" index="0" speed="7.80" length="13.44" shape="92.80,-1.60 95.93,-0.81 98.76,1.24 100.81,4.07 101.60,7.20"/>
    </edge>
    <edge id=":n6_8" function="internal">
        <lane id=":n6_8_0" index="0" speed="3.65" length="4.67" shape="92.80,-1.60 94.00,-0.80 94.40,0.00 94.00,0.80 92.80,1.60"/>
    </edge>
    <edge id=":n7_0" function="internal">
        <lane id=":n7_0_0" index="0" speed="6.08" length="7.74" shape="103.20,51.60 101.10,51.30 99.60,50.40 98.70,48.90 98.40,46.80"/>
    </edge>
    <edge id=":n7_1" function="internal">
        <lane id=":n7_1_0" index="0" speed="3.90" length="2.58" shape="101.60,46.80 101.70,47.50 102.00,48.00 102.50,48.30 103.20,48.40"/>
    </edge>
    <edge id=":n8_0" function="internal">
        <lane id=":n8_0_0" index="0" speed="6.51" length="9.03" shape="73.40,110.40 73.05,107.95 72.00,106.20 70.25,105.15 67.80,104.80"/>
    </edge>
    <edge id=":n8_1" function="internal">
        <lane id=":n8_1_0" index="0" speed="8.67" length="16.85" shape="73.40,110.40 73.95,105.15 75.60,101.40 78.35,99.15 82.20,98.40"/>
    </edge>
    <edge id=":n8_2" function="internal">
        <lane id=":n8_2_0" index="0" speed="3.65" length="2.56" shape="73.40,110.40 74.20,109.20 75.00,108.80 75.20,108.90"/>
    </edge>
    <edge id=":n8_11" function="internal">
        <lane id=":n8_11_0" index="0" speed="3.65" length="2.12" shape="75.20,108.90 75.80,109.20 76.60,110.40"/>
    </edge>
    <edge id=":n8_3" function="internal">
        <lane id=":n8_3_0" index="0" speed="6.51" length="9.03" shape="82.20,104.80 79.75,105.15 78.00,106.20 76.95,107.95 76.60,110.40"/>
    </edge>
    <edge id=":n8_4" function="internal">
        <lane id=":n8_4_0" index="0" speed="16.00" length="14.40" shape="82.20,104.80 67.80,104.80"/>
        <lane id=":n8_4_1" index="1" speed="16.00" length="14.40" shape="82.20,101.60 67.80,101.60"/>
    </edge>
    <edge id=":n8_6" function="internal">
        <lane id=":n8_6_0" index="0" speed="3.65" length="2.34" shape="82.20,101.60 81.00,100.80 80.60,100.00"/>
    </edge>
    <edge id=":n8_12" function="internal">
        <lane id=":n8_12_0" index="0" speed="3.65" length="2.34" shape="80.60,100.00 81.00,99.20 82.20,98.40"/>
    </edge>
    <edge id=":n8_7" function="internal">
        <lane id=":n8_7_0" index="0" speed="16.00" length="14.40" shape="67.80,95.20 82.20,95.20"/>
        <lane id=":n8_7_1" index="1" speed="16.00" length="14.40" shape="67.80,98.40 82.20,98.40"/>
    </edge>
    <edge id=":n8_9" function="internal">
        <lane id=":n8_9_0" index="0" speed="8.67" length="5.26" shape="67.80,98.40 71.65,99.15 72.69,100.00"/>
    </edge>
    <edge id=":n8_10" function="internal">
        <lane id=":n8_10_0" index="0" speed="3.65" length="2.34" shape="67.80,98.40 69.00,99.20 69.40,100.00"/>
    </edge>
    <edge id=":n8_13" function="internal">
        <lane id=":n8_13_0" index="0" speed="8.67" length="11.59" shape="72.69,100.00 74.40,101.40 76.05,105.15 76.60,110.40"/>
    </edge>
    <edge id=":n8_14" function="internal">
        <lane id=":n8_14_0" index="0" speed="3.65" length="2.34" shape="69.40,100.00 69.00,100.80 67.80,101.60"/>
    </edge>
    <edge id=":n9_0" function="internal">