<edges>
    <!--Horizontal edges-->
    <edge from="n1" to="n2" id="n1-n2" numLanes="2" type="standardroad_in"/>
    <edge from="n2" to="n1" id="n2-n1" numLanes="2" type="standardroad_out"/>
    <edge from="n2" to="n3" id="n2-n3" numLanes="2" type="standardroad"/>
    <edge from="n3" to="n2" id="n3-n2" numLanes="2" type="standardroad"/>
    <edge from="n3" to="n12" id="n3-n12" numLanes="1" type="onelane_out"/>
    <edge from="n12" to="n3" id="n12-n3" numLanes="1" type="onelane_in"/>


    <edge from="n4" to="n5" id="n4-n5" numLanes="2" type="standardroad_in"/>
    <edge from="n5" to="n4" id="n5-n4" numLanes="2" type="standardroad_out"/>
    <edge from="n5" to="n6" id="n5-n6" numLanes="2" type="standardroad"/>
    <edge from="n6" to="n5" id="n6-n5" numLanes="2" type="standardroad"/>
    <edge from="n6" to="n7" id="n6-n7" numLanes="2" type="standardroad_out"/>
    <edge from="n7" to="n6" id="n7-n6" numLanes="2" type="standardroad_in"/>

    <edge from="n8" to="n9" id="n8-n9" numLanes="2" type="standardroad_in"/>
    <edge from="n9" to="n8" id="n9-n8" numLanes="2" type="standardroad_out"/>
    <edge from="n9" to="n10" id="n9-n10" numLanes="2" type="standardroad"/>
    <edge from="n10" to="n9" id="n10-n9" numLanes="2" type="standardroad"/>
    <edge from="n10" to="n13" id="n10-n13" numLanes="1" type="onelane_out"/>
    <edge from="n13" to="n10" id="n13-n10" numLanes="1" type="onelane_in"/>

    <!--Vertical edges-->
    <edge from="n2" to="n5" id="n2-n5" numLanes="2" type="standardroad"/>
    <edge from="n5" to="n2" id="n5-n2" numLanes="2" type="standardroad"/>
    <edge from="n5" to="n9" id="n5-n9" numLanes="2" type="standardroad"/>
    <edge from="n9" to="n5" id="n9-n5" numLanes="2" type="standardroad"/>
    <edge from="n11" to="n2" id="n11-n2" numLanes="1" type="onelane_in"/>
    <edge from="n2" to="n11" id="n2-n11" numLanes="1" type="onelane_out"/>
    <edge from="n14" to="n9" id="n14-n9" numLanes="1" type="onelane_in"/>
    <edge from="n9" to="n14" id="n9-n14" numLanes="1" type="onelane_out"/>
    
    <edge from="n3" to="n6" id="n3-n6" numLanes="2" type="standardroad"/>
    <edge from="n6" to="n3" id="n6-n3" numLanes="2" type="standardroad"/>
    <edge from="n6" to="n10" id="n6-n10" numLanes="2" type="standardroad"/>
    <edge from="n10" to="n6" id="n10-n6" numLanes="2" type="standardroad"/>
</edges>