<?xml version="1.0" encoding="UTF-8"?>

<!-- generated on 09/20/19 13:45:43 by Eclipse SUMO netedit Version 1.1.0
<configuration xmlns:xsi="http://www.w3.org/2001/XMLSchema-instance" xsi:noNamespaceSchemaLocation="http://sumo.dlr.de/xsd/netconvertConfiguration.xsd">

    <input>
        <sumo-net-file value="C:\Users\Alexander%20Bilgram\Desktop\AAUP7\SUMOfiles\ExpeirmentsNetworks\SimpleRerouteNet.net.xml"/>
    </input>

    <output>
        <output-file value="C:\Users\Alexander%20Bilgram\Desktop\AAUP7\SUMOfiles\ExpeirmentsNetworks\SimpleRerouteNet.net.xml"/>
    </output>

    <processing>
        <geometry.max-grade.fix value="false"/>
        <offset.disable-normalization value="true"/>
        <lefthand value="false"/>
    </processing>

    <junctions>
        <no-turnarounds value="true"/>
        <junctions.corner-detail value="5"/>
        <junctions.limit-turn-speed value="5.5"/>
        <rectangular-lane-cut value="false"/>
    </junctions>

    <pedestrian>
        <walkingareas value="false"/>
    </pedestrian>

</configuration>
-->

<net version="1.1" junctionCornerDetail="5" limitTurnSpeed="5.50" xmlns:xsi="http://www.w3.org/2001/XMLSchema-instance" xsi:noNamespaceSchemaLocation="http://sumo.dlr.de/xsd/net_file.xsd">

    <location netOffset="-100.00,-100.00" convBoundary="0.00,0.00,100.00,300.00" origBoundary="100.00,100.00,200.00,400.00" projParameter="!"/>

    <type id="standardroad" priority="1" numLanes="2" speed="16.00"/>

    <edge id=":n1_0" function="internal">
        <lane id=":n1_0_0" index="0" speed="3.65" length="4.67" shape="-1.60,0.00 -0.80,-1.20 0.00,-1.60 0.80,-1.20 1.60,0.00"/>
    </edge>
    <edge id=":n10_0" function="internal">
        <lane id=":n10_0_0" index="0" speed="8.96" length="18.06" shape="104.80,193.60 104.10,198.50 102.00,202.00 98.50,204.10 93.60,204.80"/>
    </edge>
    <edge id=":n10_1" function="internal">
        <lane id=":n10_1_0" index="0" speed="7.66" length="12.90" shape="101.60,193.60 101.10,197.10 99.60,199.60 97.10,201.10 93.60,201.60"/>
    </edge>
    <edge id=":n10_2" function="internal">
        <lane id=":n10_2_0" index="0" speed="3.65" length="4.67" shape="101.60,193.60 100.80,194.80 100.00,195.20 99.20,194.80 98.40,193.60"/>
    </edge>
    <edge id=":n10_3" function="internal">
        <lane id=":n10_3_0" index="0" speed="3.90" length="2.58" shape="93.60,195.20 94.30,195.10 94.80,194.80 95.10,194.30 95.20,193.60"/>
    </edge>
    <edge id=":n10_4" function="internal">
        <lane id=":n10_4_0" index="0" speed="6.08" length="7.74" shape="93.60,198.40 95.70,198.10 97.20,197.20 98.10,195.70 98.40,193.60"/>
    </edge>
    <edge id=":n10_5" function="internal">
        <lane id=":n10_5_0" index="0" speed="3.65" length="4.67" shape="93.60,198.40 94.80,199.20 95.20,200.00 94.80,200.80 93.60,201.60"/>
    </edge>
    <edge id=":n2_0" function="internal">
        <lane id=":n2_0_0" index="0" speed="16.00" length="20.80" shape="-4.80,110.40 -4.80,89.60"/>
        <lane id=":n2_0_1" index="1" speed="16.00" length="20.80" shape="-1.60,110.40 -1.60,89.60"/>
    </edge>
    <edge id=":n2_2" function="internal">
        <lane id=":n2_2_0" index="0" speed="9.26" length="19.35" shape="-1.60,110.40 -0.85,105.15 1.40,101.40 5.15,99.15 10.40,98.40"/>
    </edge>
    <edge id=":n2_3" function="internal">
        <lane id=":n2_3_0" index="0" speed="3.65" length="4.67" shape="-1.60,110.40 -0.80,109.20 0.00,108.80 0.80,109.20 1.60,110.40"/>
    </edge>
    <edge id=":n2_4" function="internal">
        <lane id=":n2_4_0" index="0" speed="6.51" length="9.03" shape="10.40,104.80 7.95,105.15 6.20,106.20 5.15,107.95 4.80,110.40"/>
    </edge>
    <edge id=":n2_5" function="internal">
        <lane id=":n2_5_0" index="0" speed="9.26" length="19.35" shape="10.40,101.60 5.15,100.85 1.40,98.60 -0.85,94.85 -1.60,89.60"/>
    </edge>
    <edge id=":n2_6" function="internal">
        <lane id=":n2_6_0" index="0" speed="3.65" length="4.67" shape="10.40,101.60 9.20,100.80 8.80,100.00 9.20,99.20 10.40,98.40"/>
    </edge>
    <edge id=":n2_7" function="internal">
        <lane id=":n2_7_0" index="0" speed="6.51" length="9.03" shape="4.80,89.60 5.15,92.05 6.20,93.80 7.95,94.85 10.40,95.20"/>
    </edge>
    <edge id=":n2_8" function="internal">
        <lane id=":n2_8_0" index="0" speed="16.00" length="20.80" shape="4.80,89.60 4.80,110.40"/>
        <lane id=":n2_8_1" index="1" speed="16.00" length="20.80" shape="1.60,89.60 1.60,110.40"/>
    </edge>
    <edge id=":n2_10" function="internal">
        <lane id=":n2_10_0" index="0" speed="3.65" length="4.67" shape="1.60,89.60 0.80,90.80 0.00,91.20 -0.80,90.80 -1.60,89.60"/>
    </edge>
    <edge id=":n3_0" function="internal">
        <lane id=":n3_0_0" index="0" speed="8.96" length="18.06" shape="6.40,204.80 1.50,204.10 -2.00,202.00 -4.10,198.50 -4.80,193.60"/>
    </edge>
    <edge id=":n3_1" function="internal">
        <lane id=":n3_1_0" index="0" speed="7.66" length="12.90" shape="6.40,201.60 2.90,201.10 0.40,199.60 -1.10,197.10 -1.60,193.60"/>
    </edge>
    <edge id=":n3_2" function="internal">
        <lane id=":n3_2_0" index="0" speed="3.65" length="4.67" shape="6.40,201.60 5.20,200.80 4.80,200.00 5.20,199.20 6.40,198.40"/>
    </edge>
    <edge id=":n3_3" function="internal">
        <lane id=":n3_3_0" index="0" speed="3.90" length="2.58" shape="4.80,193.60 4.90,194.30 5.20,194.80 5.70,195.10 6.40,195.20"/>
    </edge>
    <edge id=":n3_4" function="internal">
        <lane id=":n3_4_0" index="0" speed="6.08" length="7.74" shape="1.60,193.60 1.90,195.70 2.80,197.20 4.30,198.10 6.40,198.40"/>
    </edge>
    <edge id=":n3_5" function="internal">
        <lane id=":n3_5_0" index="0" speed="3.65" length="4.67" shape="1.60,193.60 0.80,194.80 0.00,195.20 -0.80,194.80 -1.60,193.60"/>
    </edge>
    <edge id=":n4_0" function="internal">
        <lane id=":n4_0_0" index="0" speed="3.65" length="4.67" shape="48.40,0.00 49.20,-1.20 50.00,-1.60 50.80,-1.20 51.60,0.00"/>
    </edge>
    <edge id=":n5_0" function="internal">
        <lane id=":n5_0_0" index="0" speed="6.51" length="9.03" shape="45.20,110.40 44.85,107.95 43.80,106.20 42.05,105.15 39.60,104.80"/>
    </edge>
    <edge id=":n5_1" function="internal">
        <lane id=":n5_1_0" index="0" speed="16.00" length="20.80" shape="45.20,110.40 45.20,89.60"/>
        <lane id=":n5_1_1" index="1" speed="16.00" length="20.80" shape="48.40,110.40 48.40,89.60"/>
    </edge>
    <edge id=":n5_3" function="internal">
        <lane id=":n5_3_0" index="0" speed="9.26" length="6.96" shape="48.40,110.40 49.15,105.15 50.00,103.73"/>
    </edge>
    <edge id=":n5_4" function="internal">
        <lane id=":n5_4_0" index="0" speed="3.24" length="1.60" shape="48.40,110.40 50.00,110.40"/>
    </edge>
    <edge id=":n5_5" function="internal">
        <lane id=":n5_5_0" index="0" speed="3.65" length="2.34" shape="48.40,110.40 49.20,109.20 50.00,108.80"/>
    </edge>
    <edge id=":n5_24" function="internal">
        <lane id=":n5_24_0" index="0" speed="9.26" length="12.40" shape="50.00,103.73 51.40,101.40 55.15,99.15 60.40,98.40"/>
    </edge>
    <edge id=":n5_25" function="internal">
        <lane id=":n5_25_0" index="0" speed="3.24" length="1.60" shape="50.00,110.40 51.60,110.40"/>
    </edge>
    <edge id=":n5_26" function="internal">
        <lane id=":n5_26_0" index="0" speed="3.65" length="2.34" shape="50.00,108.80 50.80,109.20 51.60,110.40"/>
    </edge>
    <edge id=":n5_6" function="internal">
        <lane id=":n5_6_0" index="0" speed="6.51" length="9.03" shape="60.40,104.80 57.95,105.15 56.20,106.20 55.15,107.95 54.80,110.40"/>
    </edge>
    <edge id=":n5_7" function="internal">
        <lane id=":n5_7_0" index="0" speed="6.51" length="9.03" shape="60.40,104.80 57.95,105.15 56.20,106.20 55.15,107.95 54.80,110.40"/>
    </edge>
    <edge id=":n5_8" function="internal">
        <lane id=":n5_8_0" index="0" speed="16.00" length="20.80" shape="60.40,104.80 39.60,104.80"/>
        <lane id=":n5_8_1" index="1" speed="16.00" length="20.80" shape="60.40,101.60 39.60,101.60"/>
    </edge>
    <edge id=":n5_10" function="internal">
        <lane id=":n5_10_0" index="0" speed="9.26" length="6.96" shape="60.40,101.60 55.15,100.85 53.73,100.00"/>
    </edge>
    <edge id=":n5_11" function="internal">
        <lane id=":n5_11_0" index="0" speed="3.65" length="2.34" shape="60.40,101.60 59.20,100.80 58.80,100.00"/>
    </edge>
    <edge id=":n5_27" function="internal">
        <lane id=":n5_27_0" index="0" speed="9.26" length="12.40" shape="53.73,100.00 51.40,98.60 49.15,94.85 48.40,89.60"/>
    </edge>
    <edge id=":n5_28" function="internal">
        <lane id=":n5_28_0" index="0" speed="3.65" length="2.34" shape="58.80,100.00 59.20,99.20 60.40,98.40"/>
    </edge>
    <edge id=":n5_12" function="internal">
        <lane id=":n5_12_0" index="0" speed="6.51" length="9.03" shape="54.80,89.60 55.15,92.05 56.20,93.80 57.95,94.85 60.40,95.20"/>
    </edge>
    <edge id=":n5_13" function="internal">
        <lane id=":n5_13_0" index="0" speed="16.00" length="20.80" shape="54.80,89.60 54.80,110.40"/>
    </edge>
    <edge id=":n5_14" function="internal">
        <lane id=":n5_14_0" index="0" speed="16.00" length="21.12" shape="51.60,89.60 52.10,95.66 53.20,100.00 54.30,104.34 54.80,110.40"/>
    </edge>
    <edge id=":n5_15" function="internal">
        <lane id=":n5_15_0" index="0" speed="16.00" length="20.80" shape="51.60,89.60 51.60,110.40"/>
    </edge>
    <edge id=":n5_16" function="internal">
        <lane id=":n5_16_0" index="0" speed="9.26" length="6.96" shape="51.60,89.60 50.85,94.85 50.00,96.27"/>
    </edge>
    <edge id=":n5_17" function="internal">
        <lane id=":n5_17_0" index="0" speed="3.65" length="2.34" shape="51.60,89.60 50.80,90.80 50.00,91.20"/>
    </edge>
    <edge id=":n5_29" function="internal">
        <lane id=":n5_29_0" index="0" speed="9.26" length="12.40" shape="50.00,96.27 48.60,98.60 44.85,100.85 39.60,101.60"/>
    </edge>
    <edge id=":n5_30" function="internal">
        <lane id=":n5_30_0" index="0" speed="3.65" length="2.34" shape="50.00,91.20 49.20,90.80 48.40,89.60"/>
    </edge>
    <edge id=":n5_18" function="internal">
        <lane id=":n5_18_0" index="0" speed="6.51" length="9.03" shape="39.60,95.20 42.05,94.85 43.80,93.80 44.85,92.05 45.20,89.60"/>
    </edge>
    <edge id=":n5_19" function="internal">
        <lane id=":n5_19_0" index="0" speed="16.00" length="20.80" shape="39.60,95.20 60.40,95.20"/>
        <lane id=":n5_19_1" index="1" speed="16.00" length="20.80" shape="39.60,98.40 60.40,98.40"/>
    </edge>
    <edge id=":n5_21" function="internal">
        <lane id=":n5_21_0" index="0" speed="9.26" length="6.96" shape="39.60,98.40 44.85,99.15 46.27,100.00"/>
    </edge>
    <edge id=":n5_22" function="internal">
        <lane id=":n5_22_0" index="0" speed="9.26" length="6.96" shape="39.60,98.40 44.85,99.15 46.27,100.00"/>
    </edge>
    <edge id=":n5_23" function="internal">
        <lane id=":n5_23_0" index="0" speed="3.65" length="2.34" shape="39.60,98.40 40.80,99.20 41.20,100.00"/>
    </edge>
    <edge id=":n5_31" function="internal">
        <lane id=":n5_31_0" index="0" speed="9.26" length="12.40" shape="46.27,100.00 48.60,101.40 50.85,105.15 51.60,110.40"/>
    </edge>
    <edge id=":n5_32" function="internal">
        <lane id=":n5_32_0" index="0" speed="9.26" length="12.40" shape="46.27,100.00 48.60,101.40 50.85,105.15 51.60,110.40"/>
    </edge>
    <edge id=":n5_33" function="internal">
        <lane id=":n5_33_0" index="0" speed="3.65" length="2.34" shape="41.20,100.00 40.80,100.80 39.60,101.60"/>
    </edge>
    <edge id=":n6_0" function="internal">
        <lane id=":n6_0_0" index="0" speed="6.51" length="9.03" shape="45.20,210.40 44.85,207.95 43.80,206.20 42.05,205.15 39.60,204.80"/>
    </edge>
    <edge id=":n6_1" function="internal">
        <lane id=":n6_1_0" index="0" speed="16.00" length="20.80" shape="45.20,210.40 45.20,189.60"/>
        <lane id=":n6_1_1" index="1" speed="16.00" length="20.80" shape="48.40,210.40 48.40,189.60"/>
    </edge>
    <edge id=":n6_3" function="internal">
        <lane id=":n6_3_0" index="0" speed="9.26" length="14.42" shape="48.40,210.40 49.15,205.15 51.40,201.40 55.15,199.15 55.52,199.10"/>
    </edge>
    <edge id=":n6_16" function="internal">
        <lane id=":n6_16_0" index="0" speed="9.26" length="4.93" shape="55.52,199.10 60.40,198.40"/>
    </edge>
    <edge id=":n6_4" function="internal">
        <lane id=":n6_4_0" index="0" speed="16.00" length="20.80" shape="60.40,204.80 39.60,204.80"/>
        <lane id=":n6_4_1" index="1" speed="16.00" length="20.80" shape="60.40,201.60 39.60,201.60"/>
    </edge>
    <edge id=":n6_6" function="internal">
        <lane id=":n6_6_0" index="0" speed="9.26" length="6.96" shape="60.40,201.60 55.15,200.85 53.73,200.00"/>
    </edge>
    <edge id=":n6_7" function="internal">
        <lane id=":n6_7_0" index="0" speed="3.65" length="2.34" shape="60.40,201.60 59.20,200.80 58.80,200.00"/>
    </edge>
    <edge id=":n6_17" function="internal">
        <lane id=":n6_17_0" index="0" speed="9.26" length="12.40" shape="53.73,200.00 51.40,198.60 49.15,194.85 48.40,189.60"/>
    </edge>
    <edge id=":n6_18" function="internal">
        <lane id=":n6_18_0" index="0" speed="3.65" length="2.34" shape="58.80,200.00 59.20,199.20 60.40,198.40"/>
    </edge>
    <edge id=":n6_8" function="internal">
        <lane id=":n6_8_0" index="0" speed="6.51" length="9.03" shape="54.80,189.60 55.15,192.05 56.20,193.80 57.95,194.85 60.40,195.20"/>
    </edge>
    <edge id=":n6_9" function="internal">
        <lane id=":n6_9_0" index="0" speed="8.00" length="14.19" shape="51.60,189.60 52.15,193.45 53.80,196.20 56.55,197.85 60.40,198.40"/>
    </edge>
    <edge id=":n6_10" function="internal">
        <lane id=":n6_10_0" index="0" speed="9.26" length="6.96" shape="51.60,189.60 50.85,194.85 50.00,196.27"/>
    </edge>
    <edge id=":n6_11" function="internal">
        <lane id=":n6_11_0" index="0" speed="3.65" length="2.34" shape="51.60,189.60 50.80,190.80 50.00,191.20"/>
    </edge>
    <edge id=":n6_19" function="internal">
        <lane id=":n6_19_0" index="0" speed="9.26" length="12.40" shape="50.00,196.27 48.60,198.60 44.85,200.85 39.60,201.60"/>
    </edge>
    <edge id=":n6_20" function="internal">
        <lane id=":n6_20_0" index="0" speed="3.65" length="2.34" shape="50.00,191.20 49.20,190.80 48.40,189.60"/>
    </edge>
    <edge id=":n6_12" function="internal">
        <lane id=":n6_12_0" index="0" speed="6.51" length="9.03" shape="39.60,195.20 42.05,194.85 43.80,193.80 44.85,192.05 45.20,189.60"/>
    </edge>
    <edge id=":n6_13" function="internal">
        <lane id=":n6_13_0" index="0" speed="16.00" length="20.80" shape="39.60,195.20 60.40,195.20"/>
        <lane id=":n6_13_1" index="1" speed="16.00" length="20.80" shape="39.60,198.40 60.40,198.40"/>
    </edge>
    <edge id=":n6_15" function="internal">
        <lane id=":n6_15_0" index="0" speed="3.65" length="2.34" shape="39.60,198.40 40.80,199.20 41.20,200.00"/>
    </edge>
    <edge id=":n6_21" function="internal">
        <lane id=":n6_21_0" index="0" speed="3.65" length="2.34" shape="41.20,200.00 40.80,200.80 39.60,201.60"/>
    </edge>
    <edge id=":n7_0" function="internal">
        <lane id=":n7_0_0" index="0" speed="3.65" length="4.67" shape="51.60,300.00 50.80,301.20 50.00,301.60 49.20,301.20 48.40,300.00"/>
    </edge>
    <edge id=":n8_0" function="internal">
        <lane id=":n8_0_0" index="0" speed="3.65" length="4.67" shape="98.40,0.00 99.20,-1.20 100.00,-1.60 100.80,-1.20 101.60,0.00"/>
    </edge>
    <edge id=":n9_0" function="internal">
        <lane id=":n9_0_0" index="0" speed="6.51" length="9.03" shape="95.20,110.40 94.85,107.95 93.80,106.20 92.05,105.15 89.60,104.80"/>
    </edge>
    <edge id=":n9_1" function="internal">
        <lane id=":n9_1_0" index="0" speed="16.00" length="20.80" shape="95.20,110.40 95.20,89.60"/>
        <lane id=":n9_1_1" index="1" speed="16.00" length="20.80" shape="98.40,110.40 98.40,89.60"/>
    </edge>
    <edge id=":n9_3" function="internal">
        <lane id=":n9_3_0" index="0" speed="3.65" length="4.67" shape="98.40,110.40 99.20,109.20 100.00,108.80 100.80,109.20 101.60,110.40"/>
    </edge>
    <edge id=":n9_4" function="internal">
        <lane id=":n9_4_0" index="0" speed="16.00" length="20.80" shape="104.80,89.60 104.80,110.40"/>
        <lane id=":n9_4_1" index="1" speed="16.00" length="20.80" shape="101.60,89.60 101.60,110.40"/>
    </edge>
    <edge id=":n9_6" function="internal">
        <lane id=":n9_6_0" index="0" speed="9.26" length="19.35" shape="101.60,89.60 100.85,94.85 98.60,98.60 94.85,100.85 89.60,101.60"/>
    </edge>
    <edge id=":n9_7" function="internal">
        <lane id=":n9_7_0" index="0" speed="3.65" length="4.67" shape="101.60,89.60 100.80,90.80 100.00,91.20 99.20,90.80 98.40,89.60"/>
    </edge>
    <edge id=":n9_8" function="internal">
        <lane id=":n9_8_0" index="0" speed="6.51" length="9.03" shape="89.60,95.20 92.05,94.85 93.80,93.80 94.85,92.05 95.20,89.60"/>
    </edge>
    <edge id=":n9_9" function="internal">
        <lane id=":n9_9_0" index="0" speed="9.26" length="19.35" shape="89.60,98.40 94.85,99.15 98.60,101.40 100.85,105.15 101.60,110.40"/>
    </edge>
    <edge id=":n9_10" function="internal">
        <lane id=":n9_10_0" index="0" speed="3.65" length="4.67" shape="89.60,98.40 90.80,99.20 91.20,100.00 90.80,100.80 89.60,101.60"/>
    </edge>

    <edge id="n1-n2" from="n1" to="n2" priority="1" type="standardroad">
        <lane id="n1-n2_0" index="0" speed="16.00" length="89.60" shape="4.80,0.00 4.80,89.60"/>
        <lane id="n1-n2_1" index="1" speed="16.00" length="89.60" shape="1.60,0.00 1.60,89.60"/>
    </edge>
    <edge id="n10-n6" from="n10" to="n6" priority="1" type="standardroad">
        <lane id="n10-n6_0" index="0" speed="16.00" length="33.20" shape="93.60,204.80 60.40,204.80"/>
        <lane id="n10-n6_1" index="1" speed="16.00" length="33.20" shape="93.60,201.60 60.40,201.60"/>
    </edge>
    <edge id="n10-n9" from="n10" to="n9" priority="1" type="standardroad">
        <lane id="n10-n9_0" index="0" speed="16.00" length="83.20" shape="95.20,193.60 95.20,110.40"/>
        <lane id="n10-n9_1" index="1" speed="16.00" length="83.20" shape="98.40,193.60 98.40,110.40"/>
    </edge>
    <edge id="n2-n1" from="n2" to="n1" priority="1" type="standardroad">
        <lane id="n2-n1_0" index="0" speed="16.00" length="89.60" shape="-4.80,89.60 -4.80,0.00"/>
        <lane id="n2-n1_1" index="1" speed="16.00" length="89.60" shape="-1.60,89.60 -1.60,0.00"/>
    </edge>
    <edge id="n2-n3" from="n2" to="n3" priority="1" type="standardroad">
        <lane id="n2-n3_0" index="0" speed="16.00" length="83.20" shape="4.80,110.40 4.80,193.60"/>
        <lane id="n2-n3_1" index="1" speed="16.00" length="83.20" shape="1.60,110.40 1.60,193.60"/>
    </edge>
    <edge id="n2-n5" from="n2" to="n5" priority="1" type="standardroad">
        <lane id="n2-n5_0" index="0" speed="16.00" length="29.20" shape="10.40,95.20 39.60,95.20"/>
        <lane id="n2-n5_1" index="1" speed="16.00" length="29.20" shape="10.40,98.40 39.60,98.40"/>
    </edge>
    <edge id="n3-n2" from="n3" to="n2" priority="1" type="standardroad">
        <lane id="n3-n2_0" index="0" speed="16.00" length="83.20" shape="-4.80,193.60 -4.80,110.40"/>
        <lane id="n3-n2_1" index="1" speed="16.00" length="83.20" shape="-1.60,193.60 -1.60,110.40"/>
    </edge>
    <edge id="n3-n6" from="n3" to="n6" priority="1" type="standardroad">
        <lane id="n3-n6_0" index="0" speed="16.00" length="33.20" shape="6.40,195.20 39.60,195.20"/>
        <lane id="n3-n6_1" index="1" speed="16.00" length="33.20" shape="6.40,198.40 39.60,198.40"/>
    </edge>
    <edge id="n4-n5" from="n4" to="n5" priority="1" type="standardroad">
        <lane id="n4-n5_0" index="0" speed="16.00" length="89.60" shape="54.80,0.00 54.80,89.60"/>
        <lane id="n4-n5_1" index="1" speed="16.00" length="89.60" shape="51.60,0.00 51.60,89.60"/>
    </edge>
    <edge id="n5-n2" from="n5" to="n2" priority="1" type="standardroad">
        <lane id="n5-n2_0" index="0" speed="16.00" length="29.20" shape="39.60,104.80 10.40,104.80"/>
        <lane id="n5-n2_1" index="1" speed="16.00" length="29.20" shape="39.60,101.60 10.40,101.60"/>
    </edge>
    <edge id="n5-n4" from="n5" to="n4" priority="1" type="standardroad">
        <lane id="n5-n4_0" index="0" speed="16.00" length="89.60" shape="45.20,89.60 45.20,0.00"/>
        <lane id="n5-n4_1" index="1" speed="16.00" length="89.60" shape="48.40,89.60 48.40,0.00"/>
    </edge>
    <edge id="n5-n6" from="n5" to="n6" priority="1" type="standardroad">
        <lane id="n5-n6_0" index="0" speed="16.00" length="79.20" shape="54.80,110.40 54.80,189.60"/>
        <lane id="n5-n6_1" index="1" speed="16.00" length="79.20" shape="51.60,110.40 51.60,189.60"/>
    </edge>
    <edge id="n5-n9" from="n5" to="n9" priority="1" type="standardroad">
        <lane id="n5-n9_0" index="0" speed="16.00" length="29.20" shape="60.40,95.20 89.60,95.20"/>
        <lane id="n5-n9_1" index="1" speed="16.00" length="29.20" shape="60.40,98.40 89.60,98.40"/>
    </edge>
    <edge id="n6-n10" from="n6" to="n10" priority="1" type="standardroad">
        <lane id="n6-n10_0" index="0" speed="16.00" length="33.20" shape="60.40,195.20 93.60,195.20"/>
        <lane id="n6-n10_1" index="1" speed="16.00" length="33.20" shape="60.40,198.40 93.60,198.40"/>
    </edge>
    <edge id="n6-n3" from="n6" to="n3" priority="1" type="standardroad">
        <lane id="n6-n3_0" index="0" speed="16.00" length="33.20" shape="39.60,204.80 6.40,204.80"/>
        <lane id="n6-n3_1" index="1" speed="16.00" length="33.20" shape="39.60,201.60 6.40,201.60"/>
    </edge>
    <edge id="n6-n5" from="n6" to="n5" priority="1" type="standardroad">
        <lane id="n6-n5_0" index="0" speed="16.00" length="79.20" shape="45.20,189.60 45.20,110.40"/>
        <lane id="n6-n5_1" index="1" speed="16.00" length="79.20" shape="48.40,189.60 48.40,110.40"/>
    </edge>
    <edge id="n6-n7" from="n5" to="n7" priority="1" type="standardroad">
        <lane id="n6-n7_0" index="0" speed="16.00" length="189.60" shape="54.80,110.40 54.80,300.00"/>
        <lane id="n6-n7_1" index="1" speed="16.00" length="189.60" shape="51.60,110.40 51.60,300.00"/>
    </edge>
    <edge id="n7-n6" from="n7" to="n6" priority="1" type="standardroad">
        <lane id="n7-n6_0" index="0" speed="16.00" length="89.60" shape="45.20,300.00 45.20,210.40"/>
        <lane id="n7-n6_1" index="1" speed="16.00" length="89.60" shape="48.40,300.00 48.40,210.40"/>
    </edge>
    <edge id="n8-n9" from="n8" to="n9" priority="1" type="standardroad">
        <lane id="n8-n9_0" index="0" speed="16.00" length="89.60" shape="104.80,0.00 104.80,89.60"/>
        <lane id="n8-n9_1" index="1" speed="16.00" length="89.60" shape="101.60,0.00 101.60,89.60"/>
    </edge>
    <edge id="n9-n10" from="n9" to="n10" priority="1" type="standardroad">
        <lane id="n9-n10_0" index="0" speed="16.00" length="83.20" shape="104.80,110.40 104.80,193.60"/>
        <lane id="n9-n10_1" index="1" speed="16.00" length="83.20" shape="101.60,110.40 101.60,193.60"/>
    </edge>
    <edge id="n9-n5" from="n9" to="n5" priority="1" type="standardroad">
        <lane id="n9-n5_0" index="0" speed="16.00" length="29.20" shape="89.60,104.80 60.40,104.80"/>
        <lane id="n9-n5_1" index="1" speed="16.00" length="29.20" shape="89.60,101.60 60.40,101.60"/>
    </edge>
    <edge id="n9-n8" from="n9" to="n8" priority="1" type="standardroad">
        <lane id="n9-n8_0" index="0" speed="16.00" length="89.60" shape="95.20,89.60 95.20,0.00"/>
        <lane id="n9-n8_1" index="1" speed="16.00" length="89.60" shape="98.40,89.60 98.40,0.00"/>
    </edge>

    <tlLogic id="n5" type="static" programID="0" offset="0">
        <phase duration="42" state="GGGgggrrrrrrGGGGggrrrrrr"/>
        <phase duration="3"  state="yyyyyyrrrrrryyyyyyrrrrrr"/>
        <phase duration="42" state="rrrrrrGGGGggrrrrrrGGGggg"/>
        <phase duration="3"  state="rrrrrryyyyyyrrrrrryyyyyy"/>
    </tlLogic>
    <tlLogic id="n6" type="static" programID="0" offset="0">
        <phase duration="38" state="GGGgrrrrGGggrrrr"/>
        <phase duration="3"  state="yyygrrrryyggrrrr"/>
        <phase duration="6"  state="rrrGrrrrrrGGrrrr"/>
        <phase duration="3"  state="rrryrrrrrryyrrrr"/>
        <phase duration="37" state="rrrrGGggrrrrGGGg"/>
        <phase duration="3"  state="rrrryyyyrrrryyyy"/>
    </tlLogic>

    <junction id="n1" type="unregulated" x="0.00" y="0.00" incLanes="n2-n1_0 n2-n1_1" intLanes=":n1_0_0" shape="0.00,0.00 -6.40,0.00 0.00,0.00"/>
    <junction id="n10" type="unregulated" x="100.00" y="200.00" incLanes="n9-n10_0 n9-n10_1 n6-n10_0 n6-n10_1" intLanes=":n10_0_0 :n10_1_0 :n10_2_0 :n10_3_0 :n10_4_0 :n10_5_0" shape="106.40,193.60 93.60,193.60 93.60,206.40 97.51,206.04 100.71,204.98 103.20,203.20 104.98,200.71 106.04,197.51"/>
    <junction id="n2" type="unregulated" x="0.00" y="100.00" incLanes="n3-n2_0 n3-n2_1 n5-n2_0 n5-n2_1 n1-n2_0 n1-n2_1" intLanes=":n2_0_0 :n2_0_1 :n2_2_0 :n2_3_0 :n2_4_0 :n2_5_0 :n2_6_0 :n2_7_0 :n2_8_0 :n2_8_1 :n2_10_0" shape="-6.40,110.40 6.40,110.40 6.84,108.18 7.40,107.40 8.18,106.84 9.18,106.51 10.40,106.40 10.40,93.60 8.18,93.16 7.40,92.60 6.84,91.82 6.51,90.82 6.40,89.60 -6.40,89.60"/>
    <junction id="n3" type="unregulated" x="0.00" y="200.00" incLanes="n6-n3_0 n6-n3_1 n2-n3_0 n2-n3_1" intLanes=":n3_0_0 :n3_1_0 :n3_2_0 :n3_3_0 :n3_4_0 :n3_5_0" shape="6.40,206.40 6.40,193.60 -6.40,193.60 -6.04,197.51 -4.98,200.71 -3.20,203.20 -0.71,204.98 2.49,206.04"/>
    <junction id="n4" type="unregulated" x="50.00" y="0.00" incLanes="n5-n4_0 n5-n4_1" intLanes=":n4_0_0" shape="50.00,0.00 43.60,0.00 50.00,0.00"/>
    <junction id="n5" type="traffic_light" x="50.00" y="100.00" incLanes="n6-n5_0 n6-n5_1 n9-n5_0 n9-n5_1 n4-n5_0 n4-n5_1 n2-n5_0 n2-n5_1" intLanes=":n5_0_0 :n5_1_0 :n5_1_1 :n5_24_0 :n5_25_0 :n5_26_0 :n5_6_0 :n5_7_0 :n5_8_0 :n5_8_1 :n5_27_0 :n5_28_0 :n5_12_0 :n5_13_0 :n5_14_0 :n5_15_0 :n5_29_0 :n5_30_0 :n5_18_0 :n5_19_0 :n5_19_1 :n5_31_0 :n5_32_0 :n5_33_0" shape="43.60,110.40 56.40,110.40 56.84,108.18 57.40,107.40 58.18,106.84 59.18,106.51 60.40,106.40 60.40,93.60 58.18,93.16 57.40,92.60 56.84,91.82 56.51,90.82 56.40,89.60 43.60,89.60 43.16,91.82 42.60,92.60 41.82,93.16 40.82,93.49 39.60,93.60 39.60,106.40 41.82,106.84 42.60,107.40 43.16,108.18 43.49,109.18">
        <request index="0"  response="000000000000000000000000" foes="000000000000001100000000" cont="0"/>
        <request index="1"  response="011000000000010000000000" foes="011111110000011100000000" cont="0"/>
        <request index="2"  response="011000000000010000000000" foes="011111110000011100000000" cont="0"/>
        <request index="3"  response="011000001110010000000000" foes="011110001110111100000000" cont="1"/>
        <request index="4"  response="011000001010000000000000" foes="011000001010000010000000" cont="1"/>
        <request index="5"  response="010000001010000000000000" foes="010000001010000000000000" cont="1"/>
        <request index="6"  response="000000000100000000000000" foes="000000000100000000000000" cont="0"/>
        <request index="7"  response="000000001110000000010000" foes="001000001110000000010000" cont="0"/>
        <request index="8"  response="000000011110000000001111" foes="111000011110000000001111" cont="0"/>
        <request index="9"  response="000000011110000000001111" foes="111000011110000000001111" cont="0"/>
        <request index="10" response="000110011110000000001110" foes="000110111110000000001110" cont="1"/>
        <request index="11" response="000110000000000000001000" foes="000110000000000000001000" cont="1"/>
        <request index="12" response="000000000000000000000000" foes="000110000000000000000000" cont="0"/>
        <request index="13" response="011000000000010000000000" foes="011110000100011110111000" cont="0"/>
        <request index="14" response="000000000000010000000000" foes="000110000010011111001000" cont="0"/>
        <request index="15" response="011000000000010000000000" foes="011110000000011110111000" cont="0"/>
        <request index="16" response="011000000000010000000110" foes="111110000000011100000110" cont="1"/>
        <request index="17" response="000000000000010000000110" foes="000000000000010000000110" cont="1"/>
        <request index="18" response="000000000000000000000110" foes="000000000000000000000110" cont="0"/>
        <request index="19" response="000000011111000000001110" foes="000000011111110000001110" cont="0"/>
        <request index="20" response="000000011111000000001110" foes="000000011111110000001110" cont="0"/>
        <request index="21" response="000000011010001110011110" foes="000000011010001110011110" cont="1"/>
        <request index="22" response="000000011010001100011110" foes="000000011010001100111110" cont="1"/>
        <request index="23" response="000000010000001100000000" foes="000000010000001100000000" cont="1"/>
    </junction>
    <junction id="n6" type="traffic_light" x="50.00" y="200.00" incLanes="n7-n6_0 n7-n6_1 n10-n6_0 n10-n6_1 n5-n6_0 n5-n6_1 n3-n6_0 n3-n6_1" intLanes=":n6_0_0 :n6_1_0 :n6_1_1 :n6_16_0 :n6_4_0 :n6_4_1 :n6_17_0 :n6_18_0 :n6_8_0 :n6_9_0 :n6_19_0 :n6_20_0 :n6_12_0 :n6_13_0 :n6_13_1 :n6_21_0" shape="43.60,210.40 50.00,210.40 51.16,208.18 52.60,207.40 54.62,206.84 57.22,206.51 60.40,206.40 60.40,193.60 58.18,193.16 57.40,192.60 56.84,191.82 56.51,190.82 56.40,189.60 43.60,189.60 43.16,191.82 42.60,192.60 41.82,193.16 40.82,193.49 39.60,193.60 39.60,206.40 41.82,206.84 42.60,207.40 43.16,208.18 43.49,209.18">
        <request index="0"  response="0000000000000000" foes="0000000000110000" cont="0"/>
        <request index="1"  response="0000000001000000" foes="0111110001110000" cont="0"/>
        <request index="2"  response="0000000001000000" foes="0111110001110000" cont="0"/>