<routes>
    <vType accel="1.0" decel="5.0" id="Car" jmIgnoreKeepClearTime="100.0" maxSpeed="30" length="3" />
        
    <!--emergencyDecel="0.0"-->
    <trip id="0" depart="0" from="n11-n2" to="n3-n12"/>
<trip id="1" depart="1" from="n11-n2" to="n2-n11"/>
<trip id="2" depart="1" from="n12-n3" to="n5-n4"/>
<trip id="3" depart="1" from="n11-n2" to="n10-n13"/>
<trip id="4" depart="4" from="n13-n10" to="n3-n12"/>
<trip id="5" depart="5" from="n8-n9" to="n3-n12"/>
<trip id="6" depart="5" from="n7-n6" to="n6-n7"/>
<trip id="7" depart="7" from="n13-n10" to="n3-n12"/>
<trip id="8" depart="13" from="n8-n9" to="n2-n11"/>
<trip id="9" depart="16" from="n4-n5" to="n2-n11"/>
<trip id="10" depart="16" from="n14-n9" to="n10-n13"/>
<trip id="11" depart="21" from="n14-n9" to="n5-n4"/>
<trip id="12" depart="31" from="n8-n9" to="n10-n13"/>
<trip id="13" depart="32" from="n4-n5" to="n10-n13"/>
<trip id="14" depart="35" from="n13-n10" to="n6-n7"/>
<trip id="15" depart="40" from="n4-n5" to="n2-n11"/>
<trip id="16" depart="40" from="n8-n9" to="n2-n11"/>
<trip id="17" depart="41" from="n4-n5" to="n9-n8"/>
<trip id="18" depart="41" from="n1-n2" to="n2-n11"/>
<trip id="19" depart="42" from="n11-n2" to="n3-n12"/>
<trip id="20" depart="42" from="n1-n2" to="n2-n11"/>
<trip id="21" depart="44" from="n11-n2" to="n5-n4"/>
<trip id="22" depart="45" from="n11-n2" to="n5-n4"/>
<trip id="23" depart="46" from="n8-n9" to="n5-n4"/>
<trip id="24" depart="49" from="n4-n5" to="n2-n1"/>
<trip id="25" depart="50" from="n7-n6" to="n5-n4"/>
<trip id="26" depart="57" from="n7-n6" to="n5-n4"/>
<trip id="27" depart="59" from="n11-n2" to="n10-n13"/>
<trip id="28" depart="61" from="n4-n5" to="n9-n8"/>
<trip id="29" depart="62" from="n13-n10" to="n9-n14"/>
<trip id="30" depart="63" from="n8-n9" to="n10-n13"/>
<trip id="31" depart="64" from="n13-n10" to="n6-n7"/>
<trip id="32" depart="65" from="n4-n5" to="n2-n11"/>
<trip id="33" depart="67" from="n13-n10" to="n10-n13"/>
<trip id="34" depart="70" from="n4-n5" to="n10-n13"/>
<trip id="35" depart="71" from="n1-n2" to="n9-n8"/>
<trip id="36" depart="73" from="n7-n6" to="n2-n1"/>
<trip id="37" depart="78" from="n7-n6" to="n3-n12"/>
<trip id="38" depart="79" from="n4-n5" to="n9-n8"/>
<trip id="39" depart="83" from="n12-n3" to="n3-n12"/>
<trip id="40" depart="84" from="n12-n3" to="n3-n12"/>
<trip id="41" depart="84" from="n11-n2" to="n5-n4"/>
<trip id="42" depart="86" from="n8-n9" to="n10-n13"/>
<trip id="43" depart="90" from="n1-n2" to="n2-n1"/>
<trip id="44" depart="93" from="n1-n2" to="n2-n11"/>
<trip id="45" depart="96" from="n7-n6" to="n9-n8"/>
<trip id="46" depart="97" from="n13-n10" to="n10-n13"/>
<trip id="47" depart="101" from="n13-n10" to="n2-n1"/>
<trip id="48" depart="101" from="n4-n5" to="n9-n14"/>
<trip id="49" depart="102" from="n8-n9" to="n9-n8"/>
<trip id="50" depart="103" from="n13-n10" to="n10-n13"/>
<trip id="51" depart="103" from="n8-n9" to="n9-n14"/>
<trip id="52" depart="103" from="n14-n9" to="n9-n8"/>
<trip id="53" depart="106" from="n1-n2" to="n10-n13"/>
<trip id="54" depart="106" from="n8-n9" to="n3-n12"/>
<trip id="55" depart="109" from="n1-n2" to="n3-n12"/>
<trip id="56" depart="111" from="n4-n5" to="n6-n7"/>
<trip id="57" depart="114" from="n4-n5" to="n10-n13"/>
<trip id="58" depart="116" from="n7-n6" to="n2-n11"/>
<trip id="59" depart="117" from="n4-n5" to="n10-n13"/>
<trip id="60" depart="118" from="n1-n2" to="n10-n13"/>
<trip id="61" depart="118" from="n11-n2" to="n6-n7"/>
<trip id="62" depart="118" from="n13-n10" to="n9-n8"/>
<trip id="63" depart="121" from="n7-n6" to="n2-n11"/>
<trip id="64" depart="123" from="n14-n9" to="n3-n12"/>
<trip id="65" depart="125" from="n13-n10" to="n2-n1"/>
<trip id="66" depart="126" from="n12-n3" to="n6-n7"/>
<trip id="67" depart="131" from="n1-n2" to="n10-n13"/>
<trip id="68" depart="133" from="n13-n10" to="n6-n7"/>
<trip id="69" depart="134" from="n4-n5" to="n9-n14"/>
<trip id="70" depart="138" from="n7-n6" to="n6-n7"/>
<trip id="71" depart="138" from="n7-n6" to="n3-n12"/>
<trip id="72" depart="140" from="n11-n2" to="n10-n13"/>
<trip id="73" depart="141" from="n12-n3" to="n5-n4"/>
<trip id="74" depart="142" from="n12-n3" to="n9-n8"/>
<trip id="75" depart="147" from="n8-n9" to="n2-n1"/>
<trip id="76" depart="147" from="n11-n2" to="n6-n7"/>
<trip id="77" depart="148" from="n13-n10" to="n3-n12"/>
<trip id="78" depart="149" from="n4-n5" to="n3-n12"/>
<trip id="79" depart="156" from="n11-n2" to="n6-n7"/>
<trip id="80" depart="158" from="n13-n10" to="n2-n1"/>
<trip id="81" depart="159" from="n8-n9" to="n2-n1"/>
<trip id="82" depart="163" from="n11-n2" to="n10-n13"/>
<trip id="83" depart="165" from="n8-n9" to="n5-n4"/>
<trip id="84" depart="172" from="n11-n2" to="n5-n4"/>
<trip id="85" depart="175" from="n7-n6" to="n6-n7"/>
<trip id="86" depart="176" from="n14-n9" to="n3-n12"/>
<trip id="87" depart="178" from="n11-n2" to="n2-n1"/>
<trip id="88" depart="182" from="n8-n9" to="n6-n7"/>
<trip id="89" depart="184" from="n14-n9" to="n9-n14"/>
<trip id="90" depart="184" from="n13-n10" to="n3-n12"/>
<trip id="91" depart="186" from="n12-n3" to="n2-n1"/>
<trip id="92" depart="186" from="n13-n10" to="n9-n14"/>
<trip id="93" depart="187" from="n11-n2" to="n2-n1"/>
<trip id="94" depart="188" from="n14-n9" to="n3-n12"/>
<trip id="95" depart="188" from="n1-n2" to="n2-n11"/>
<trip id="96" depart="189" from="n8-n9" to="n9-n14"/>
<trip id="97" depart="191" from="n8-n9" to="n6-n7"/>
<trip id="98" depart="191" from="n4-n5" to="n2-n1"/>
<trip id="99" depart="200" from="n8-n9" to="n9-n14"/>


</routes>