<?xml version="1.0" encoding="UTF-8"?>

<!-- generated on 09/23/19 10:51:47 by Eclipse SUMO netconvert Version 1.1.0
<configuration xmlns:xsi="http://www.w3.org/2001/XMLSchema-instance" xsi:noNamespaceSchemaLocation="http://sumo.dlr.de/xsd/netconvertConfiguration.xsd">

    <input>
        <node-files value="SimpleRerouteNodes.nod.xml"/>
        <edge-files value="SimpleRerouteEdges.edg.xml"/>
        <type-files value="TypeFile.type.xml"/>
    </input>

    <output>
        <output-file value="SimpleRerouteNet.net.xml"/>
    </output>

</configuration>
-->

<net version="1.1" junctionCornerDetail="5" limitTurnSpeed="5.50" xmlns:xsi="http://www.w3.org/2001/XMLSchema-instance" xsi:noNamespaceSchemaLocation="http://sumo.dlr.de/xsd/net_file.xsd">

    <location netOffset="-50.00,-100.00" convBoundary="0.00,0.00,200.00,300.00" origBoundary="50.00,100.00,250.00,400.00" projParameter="!"/>

    <type id="onelane_in" priority="1" numLanes="1" speed="16.00"/>
    <type id="onelane_out" priority="1" numLanes="1" speed="16.00"/>
    <type id="standardroad" priority="1" numLanes="2" speed="16.00"/>
    <type id="standardroad_in" priority="1" numLanes="2" speed="16.00"/>
    <type id="standardroad_out" priority="1" numLanes="2" speed="16.00"/>

    <edge id=":n1_0" function="internal">
        <lane id=":n1_0_0" index="0" speed="3.65" length="4.67" shape="48.40,0.00 49.20,-1.20 50.00,-1.60 50.80,-1.20 51.60,0.00"/>
    </edge>
    <edge id=":n10_0" function="internal">
        <lane id=":n10_0_0" index="0" speed="7.33" length="11.73" shape="148.40,210.40 147.85,207.95 146.20,206.20 143.45,205.15 139.60,204.80"/>
    </edge>
    <edge id=":n10_1" function="internal">
        <lane id=":n10_1_0" index="0" speed="16.00" length="20.80" shape="148.40,210.40 148.40,189.60"/>
    </edge>
    <edge id=":n10_2" function="internal">
        <lane id=":n10_2_0" index="0" speed="3.65" length="2.54" shape="148.40,210.40 149.20,209.20 150.00,208.80 150.18,208.89"/>
    </edge>
    <edge id=":n10_10" function="internal">
        <lane id=":n10_10_0" index="0" speed="3.65" length="2.14" shape="150.18,208.89 150.80,209.20 151.60,210.40"/>
    </edge>
    <edge id=":n10_3" function="internal">
        <lane id=":n10_3_0" index="0" speed="16.00" length="21.09" shape="154.80,189.60 154.30,196.37 153.20,201.88 152.10,206.45 151.60,210.40"/>
    </edge>
    <edge id=":n10_4" function="internal">
        <lane id=":n10_4_0" index="0" speed="9.26" length="19.35" shape="151.60,189.60 150.85,194.85 148.60,198.60 144.85,200.85 139.60,201.60"/>
    </edge>
    <edge id=":n10_5" function="internal">
        <lane id=":n10_5_0" index="0" speed="3.65" length="2.56" shape="151.60,189.60 150.80,190.80 150.00,191.20 149.80,191.10"/>
    </edge>
    <edge id=":n10_11" function="internal">
        <lane id=":n10_11_0" index="0" speed="3.65" length="2.12" shape="149.80,191.10 149.20,190.80 148.40,189.60"/>
    </edge>
    <edge id=":n10_6" function="internal">
        <lane id=":n10_6_0" index="0" speed="6.51" length="9.03" shape="139.60,195.20 142.05,194.85 143.80,193.80 144.85,192.05 145.20,189.60"/>
    </edge>
    <edge id=":n10_7" function="internal">
        <lane id=":n10_7_0" index="0" speed="8.00" length="14.19" shape="139.60,198.40 143.45,197.85 146.20,196.20 147.85,193.45 148.40,189.60"/>
    </edge>
    <edge id=":n10_8" function="internal">
        <lane id=":n10_8_0" index="0" speed="9.26" length="5.08" shape="139.60,198.40 144.63,199.12"/>
    </edge>
    <edge id=":n10_9" function="internal">
        <lane id=":n10_9_0" index="0" speed="3.65" length="2.08" shape="139.60,198.40 140.80,199.20 141.09,199.77"/>
    </edge>
    <edge id=":n10_12" function="internal">
        <lane id=":n10_12_0" index="0" speed="9.26" length="14.28" shape="144.63,199.12 144.85,199.15 148.60,201.40 150.85,205.15 151.60,210.40"/>
    </edge>
    <edge id=":n10_13" function="internal">
        <lane id=":n10_13_0" index="0" speed="3.65" length="2.59" shape="141.09,199.77 141.20,200.00 140.80,200.80 139.60,201.60"/>
    </edge>
    <edge id=":n11_0" function="internal">
        <lane id=":n11_0_0" index="0" speed="3.65" length="4.67" shape="0.00,101.60 -1.20,100.80 -1.60,100.00 -1.20,99.20 0.00,98.40"/>
    </edge>
    <edge id=":n12_0" function="internal">
        <lane id=":n12_0_0" index="0" speed="3.65" length="4.67" shape="51.60,300.00 50.80,301.20 50.00,301.60 49.20,301.20 48.40,300.00"/>
    </edge>
    <edge id=":n13_0" function="internal">
        <lane id=":n13_0_0" index="0" speed="3.65" length="4.67" shape="151.60,300.00 150.80,301.20 150.00,301.60 149.20,301.20 148.40,300.00"/>
    </edge>
    <edge id=":n14_0" function="internal">
        <lane id=":n14_0_0" index="0" speed="3.65" length="4.67" shape="200.00,98.40 201.20,99.20 201.60,100.00 201.20,100.80 200.00,101.60"/>
    </edge>
    <edge id=":n2_0" function="internal">
        <lane id=":n2_0_0" index="0" speed="7.33" length="11.73" shape="45.20,110.40 44.85,106.55 43.80,103.80 42.05,102.15 39.60,101.60"/>
    </edge>
    <edge id=":n2_1" function="internal">
        <lane id=":n2_1_0" index="0" speed="16.00" length="20.80" shape="45.20,110.40 45.20,89.60"/>
        <lane id=":n2_1_1" index="1" speed="16.00" length="20.80" shape="48.40,110.40 48.40,89.60"/>
    </edge>
    <edge id=":n2_3" function="internal">
        <lane id=":n2_3_0" index="0" speed="9.26" length="6.96" shape="48.40,110.40 49.15,105.15 50.00,103.73"/>
    </edge>
    <edge id=":n2_4" function="internal">
        <lane id=":n2_4_0" index="0" speed="3.65" length="2.34" shape="48.40,110.40 49.20,109.20 50.00,108.80"/>
    </edge>
    <edge id=":n2_18" function="internal">
        <lane id=":n2_18_0" index="0" speed="9.26" length="12.40" shape="50.00,103.73 51.40,101.40 55.15,99.15 60.40,98.40"/>
    </edge>
    <edge id=":n2_19" function="internal">
        <lane id=":n2_19_0" index="0" speed="3.65" length="2.34" shape="50.00,108.80 50.80,109.20 51.60,110.40"/>
    </edge>
    <edge id=":n2_5" function="internal">
        <lane id=":n2_5_0" index="0" speed="6.51" length="9.03" shape="60.40,104.80 57.95,105.15 56.20,106.20 55.15,107.95 54.80,110.40"/>
    </edge>
    <edge id=":n2_6" function="internal">
        <lane id=":n2_6_0" index="0" speed="16.00" length="21.09" shape="60.40,104.80 53.63,104.30 48.13,103.20 43.55,102.10 39.60,101.60"/>
    </edge>
    <edge id=":n2_7" function="internal">
        <lane id=":n2_7_0" index="0" speed="9.26" length="6.96" shape="60.40,101.60 55.15,100.85 53.73,100.00"/>
    </edge>
    <edge id=":n2_8" function="internal">
        <lane id=":n2_8_0" index="0" speed="3.65" length="2.34" shape="60.40,101.60 59.20,100.80 58.80,100.00"/>
    </edge>
    <edge id=":n2_20" function="internal">
        <lane id=":n2_20_0" index="0" speed="9.26" length="12.40" shape="53.73,100.00 51.40,98.60 49.15,94.85 48.40,89.60"/>
    </edge>
    <edge id=":n2_21" function="internal">
        <lane id=":n2_21_0" index="0" speed="3.65" length="2.34" shape="58.80,100.00 59.20,99.20 60.40,98.40"/>
    </edge>
    <edge id=":n2_9" function="internal">
        <lane id=":n2_9_0" index="0" speed="6.51" length="9.03" shape="54.80,89.60 55.15,92.05 56.20,93.80 57.95,94.85 60.40,95.20"/>
    </edge>
    <edge id=":n2_10" function="internal">
        <lane id=":n2_10_0" index="0" speed="16.00" length="20.80" shape="54.80,89.60 54.80,110.40"/>
        <lane id=":n2_10_1" index="1" speed="16.00" length="20.80" shape="51.60,89.60 51.60,110.40"/>
    </edge>
    <edge id=":n2_12" function="internal">
        <lane id=":n2_12_0" index="0" speed="9.26" length="6.96" shape="51.60,89.60 50.85,94.85 50.00,96.27"/>
    </edge>
    <edge id=":n2_13" function="internal">
        <lane id=":n2_13_0" index="0" speed="3.65" length="2.34" shape="51.60,89.60 50.80,90.80 50.00,91.20"/>
    </edge>
    <edge id=":n2_22" function="internal">
        <lane id=":n2_22_0" index="0" speed="9.26" length="12.40" shape="50.00,96.27 48.60,98.60 44.85,100.85 39.60,101.60"/>
    </edge>
    <edge id=":n2_23" function="internal">
        <lane id=":n2_23_0" index="0" speed="3.65" length="2.34" shape="50.00,91.20 49.20,90.80 48.40,89.60"/>
    </edge>
    <edge id=":n2_14" function="internal">
        <lane id=":n2_14_0" index="0" speed="7.33" length="11.73" shape="39.60,98.40 42.05,97.85 43.80,96.20 44.85,93.45 45.20,89.60"/>
    </edge>
    <edge id=":n2_15" function="internal">
        <lane id=":n2_15_0" index="0" speed="16.00" length="20.80" shape="39.60,98.40 60.40,98.40"/>
    </edge>
    <edge id=":n2_16" function="internal">
        <lane id=":n2_16_0" index="0" speed="9.26" length="10.03" shape="39.60,98.40 44.85,99.15 48.60,101.40 48.78,101.70"/>
    </edge>
    <edge id=":n2_17" function="internal">
        <lane id=":n2_17_0" index="0" speed="3.65" length="2.54" shape="39.60,98.40 40.80,99.20 41.20,100.00 41.11,100.18"/>
    </edge>
    <edge id=":n2_24" function="internal">
        <lane id=":n2_24_0" index="0" speed="9.26" length="9.33" shape="48.78,101.70 50.85,105.15 51.60,110.40"/>
    </edge>
    <edge id=":n2_25" function="internal">
        <lane id=":n2_25_0" index="0" speed="3.65" length="2.14" shape="41.11,100.18 40.80,100.80 39.60,101.60"/>
    </edge>
    <edge id=":n3_0" function="internal">
        <lane id=":n3_0_0" index="0" speed="16.00" length="21.09" shape="48.40,210.40 47.90,206.45 46.80,201.88 45.70,196.37 45.20,189.60"/>
    </edge>
    <edge id=":n3_1" function="internal">
        <lane id=":n3_1_0" index="0" speed="9.26" length="19.35" shape="48.40,210.40 49.15,205.15 51.40,201.40 55.15,199.15 60.40,198.40"/>
    </edge>
    <edge id=":n3_2" function="internal">
        <lane id=":n3_2_0" index="0" speed="3.65" length="2.66" shape="48.40,210.40 49.20,209.20 50.00,208.80 50.29,208.94"/>
    </edge>
    <edge id=":n3_9" function="internal">
        <lane id=":n3_9_0" index="0" speed="3.65" length="2.02" shape="50.29,208.94 50.80,209.20 51.60,210.40"/>
    </edge>
    <edge id=":n3_3" function="internal">
        <lane id=":n3_3_0" index="0" speed="7.33" length="11.73" shape="60.40,204.80 56.55,205.15 53.80,206.20 52.15,207.95 51.60,210.40"/>
    </edge>
    <edge id=":n3_4" function="internal">
        <lane id=":n3_4_0" index="0" speed="9.26" length="19.35" shape="60.40,201.60 55.15,200.85 51.40,198.60 49.15,194.85 48.40,189.60"/>
    </edge>
    <edge id=":n3_5" function="internal">
        <lane id=":n3_5_0" index="0" speed="3.65" length="2.34" shape="60.40,201.60 59.20,200.80 58.80,200.00"/>
    </edge>
    <edge id=":n3_10" function="internal">
        <lane id=":n3_10_0" index="0" speed="3.65" length="2.34" shape="58.80,200.00 59.20,199.20 60.40,198.40"/>
    </edge>
    <edge id=":n3_6" function="internal">
        <lane id=":n3_6_0" index="0" speed="6.51" length="9.03" shape="54.80,189.60 55.15,192.05 56.20,193.80 57.95,194.85 60.40,195.20"/>
    </edge>
    <edge id=":n3_7" function="internal">
        <lane id=":n3_7_0" index="0" speed="16.00" length="21.09" shape="54.80,189.60 54.30,196.37 53.20,201.88 52.10,206.45 51.60,210.40"/>
    </edge>
    <edge id=":n3_8" function="internal">
        <lane id=":n3_8_0" index="0" speed="3.65" length="2.08" shape="51.60,189.60 50.80,190.80 50.23,191.09"/>
    </edge>
    <edge id=":n3_11" function="internal">
        <lane id=":n3_11_0" index="0" speed="3.65" length="2.59" shape="50.23,191.09 50.00,191.20 49.20,190.80 48.40,189.60"/>
    </edge>
    <edge id=":n4_0" function="internal">
        <lane id=":n4_0_0" index="0" speed="3.65" length="4.67" shape="98.40,0.00 99.20,-1.20 100.00,-1.60 100.80,-1.20 101.60,0.00"/>
    </edge>
    <edge id=":n5_0" function="internal">
        <lane id=":n5_0_0" index="0" speed="6.51" length="9.03" shape="95.20,110.40 94.85,107.95 93.80,106.20 92.05,105.15 89.60,104.80"/>
    </edge>
    <edge id=":n5_1" function="internal">
        <lane id=":n5_1_0" index="0" speed="16.00" length="20.80" shape="95.20,110.40 95.20,89.60"/>
        <lane id=":n5_1_1" index="1" speed="16.00" length="20.80" shape="98.40,110.40 98.40,89.60"/>
    </edge>
    <edge id=":n5_3" function="internal">
        <lane id=":n5_3_0" index="0" speed="9.26" length="6.96" shape="98.40,110.40 99.15,105.15 100.00,103.73"/>
    </edge>
    <edge id=":n5_4" function="internal">
        <lane id=":n5_4_0" index="0" speed="3.65" length="2.34" shape="98.40,110.40 99.20,109.20 100.00,108.80"/>
    </edge>
    <edge id=":n5_20" function="internal">
        <lane id=":n5_20_0" index="0" speed="9.26" length="12.40" shape="100.00,103.73 101.40,101.40 105.15,99.15 110.40,98.40"/>
    </edge>
    <edge id=":n5_21" function="internal">
        <lane id=":n5_21_0" index="0" speed="3.65" length="2.34" shape="100.00,108.80 100.80,109.20 101.60,110.40"/>
    </edge>
    <edge id=":n5_5" function="internal">
        <lane id=":n5_5_0" index="0" speed="6.51" length="9.03" shape="110.40,104.80 107.95,105.15 106.20,106.20 105.15,107.95 104.80,110.40"/>
    </edge>
    <edge id=":n5_6" function="internal">
        <lane id=":n5_6_0" index="0" speed="16.00" length="20.80" shape="110.40,104.80 89.60,104.80"/>
        <lane id=":n5_6_1" index="1" speed="16.00" length="20.80" shape="110.40,101.60 89.60,101.60"/>
    </edge>
    <edge id=":n5_8" function="internal">
        <lane id=":n5_8_0" index="0" speed="9.26" length="6.96" shape="110.40,101.60 105.15,100.85 103.73,100.00"/>
    </edge>
    <edge id=":n5_9" function="internal">
        <lane id=":n5_9_0" index="0" speed="3.65" length="2.34" shape="110.40,101.60 109.20,100.80 108.80,100.00"/>
    </edge>
    <edge id=":n5_22" function="internal">
        <lane id=":n5_22_0" index="0" speed="9.26" length="12.40" shape="103.73,100.00 101.40,98.60 99.15,94.85 98.40,89.60"/>
    </edge>
    <edge id=":n5_23" function="internal">
        <lane id=":n5_23_0" index="0" speed="3.65" length="2.34" shape="108.80,100.00 109.20,99.20 110.40,98.40"/>
    </edge>
    <edge id=":n5_10" function="internal">
        <lane id=":n5_10_0" index="0" speed="6.51" length="9.03" shape="104.80,89.60 105.15,92.05 106.20,93.80 107.95,94.85 110.40,95.20"/>
    </edge>
    <edge id=":n5_11" function="internal">
        <lane id=":n5_11_0" index="0" speed="16.00" length="20.80" shape="104.80,89.60 104.80,110.40"/>
        <lane id=":n5_11_1" index="1" speed="16.00" length="20.80" shape="101.60,89.60 101.60,110.40"/>
    </edge>
    <edge id=":n5_13" function="internal">
        <lane id=":n5_13_0" index="0" speed="9.26" length="6.96" shape="101.60,89.60 100.85,94.85 100.00,96.27"/>
    </edge>
    <edge id=":n5_14" function="internal">
        <lane id=":n5_14_0" index="0" speed="3.65" length="2.34" shape="101.60,89.60 100.80,90.80 100.00,91.20"/>
    </edge>
    <edge id=":n5_24" function="internal">
        <lane id=":n5_24_0" index="0" speed="9.26" length="12.40" shape="100.00,96.27 98.60,98.60 94.85,100.85 89.60,101.60"/>
    </edge>
    <edge id=":n5_25" function="internal">
        <lane id=":n5_25_0" index="0" speed="3.65" length="2.34" shape="100.00,91.20 99.20,90.80 98.40,89.60"/>
    </edge>
    <edge id=":n5_15" function="internal">
        <lane id=":n5_15_0" index="0" speed="6.51" length="9.03" shape="89.60,95.20 92.05,94.85 93.80,93.80 94.85,92.05 95.20,89.60"/>
    </edge>
    <edge id=":n5_16" function="internal">
        <lane id=":n5_16_0" index="0" speed="16.00" length="20.80" shape="89.60,95.20 110.40,95.20"/>
        <lane id=":n5_16_1" index="1" speed="16.00" length="20.80" shape="89.60,98.40 110.40,98.40"/>
    </edge>
    <edge id=":n5_18" function="internal">
        <lane id=":n5_18_0" index="0" speed="9.26" length="6.96" shape="89.60,98.40 94.85,99.15 96.27,100.00"/>
    </edge>
    <edge id=":n5_19" function="internal">
        <lane id=":n5_19_0" index="0" speed="3.65" length="2.34" shape="89.60,98.40 90.80,99.20 91.20,100.00"/>
    </edge>
    <edge id=":n5_26" function="internal">
        <lane id=":n5_26_0" index="0" speed="9.26" length="12.40" shape="96.27,100.00 98.60,101.40 100.85,105.15 101.60,110.40"/>
    </edge>
    <edge id=":n5_27" function="internal">
        <lane id=":n5_27_0" index="0" speed="3.65" length="2.34" shape="91.20,100.00 90.80,100.80 89.60,101.60"/>
    </edge>
    <edge id=":n6_0" function="internal">
        <lane id=":n6_0_0" index="0" speed="6.51" length="9.03" shape="95.20,210.40 94.85,207.95 93.80,206.20 92.05,205.15 89.60,204.80"/>
    </edge>
    <edge id=":n6_1" function="internal">
        <lane id=":n6_1_0" index="0" speed="16.00" length="20.80" shape="95.20,210.40 95.20,189.60"/>
        <lane id=":n6_1_1" index="1" speed="16.00" length="20.80" shape="98.40,210.40 98.40,189.60"/>
    </edge>
    <edge id=":n6_3" function="internal">
        <lane id=":n6_3_0" index="0" speed="9.26" length="6.96" shape="98.40,210.40 99.15,205.15 100.00,203.73"/>
    </edge>
    <edge id=":n6_4" function="internal">
        <lane id=":n6_4_0" index="0" speed="3.65" length="2.34" shape="98.40,210.40 99.20,209.20 100.00,208.80"/>
    </edge>
    <edge id=":n6_20" function="internal">
        <lane id=":n6_20_0" index="0" speed="9.26" length="12.40" shape="100.00,203.73 101.40,201.40 105.15,199.15 110.40,198.40"/>
    </edge>
    <edge id=":n6_21" function="internal">
        <lane id=":n6_21_0" index="0" speed="3.65" length="2.34" shape="100.00,208.80 100.80,209.20 101.60,210.40"/>
    </edge>
    <edge id=":n6_5" function="internal">
        <lane id=":n6_5_0" index="0" speed="6.51" length="9.03" shape="110.40,204.80 107.95,205.15 106.20,206.20 105.15,207.95 104.80,210.40"/>
    </edge>
    <edge id=":n6_6" function="internal">
        <lane id=":n6_6_0" index="0" speed="16.00" length="20.80" shape="110.40,204.80 89.60,204.80"/>
        <lane id=":n6_6_1" index="1" speed="16.00" length="20.80" shape="110.40,201.60 89.60,201.60"/>
    </edge>
    <edge id=":n6_8" function="internal">
        <lane id=":n6_8_0" index="0" speed="9.26" length="6.96" shape="110.40,201.60 105.15,200.85 103.73,200.00"/>
    </edge>
    <edge id=":n6_9" function="internal">
        <lane id=":n6_9_0" index="0" speed="3.65" length="2.34" shape="110.40,201.60 109.20,200.80 108.80,200.00"/>
    </edge>
    <edge id=":n6_22" function="internal">
        <lane id=":n6_22_0" index="0" speed="9.26" length="12.40" shape="103.73,200.00 101.40,198.60 99.15,194.85 98.40,189.60"/>
    </edge>
    <edge id=":n6_23" function="internal">
        <lane id=":n6_23_0" index="0" speed="3.65" length="2.34" shape="108.80,200.00 109.20,199.20 110.40,198.40"/>
    </edge>
    <edge id=":n6_10" function="internal">
        <lane id=":n6_10_0" index="0" speed="6.51" length="9.03" shape="104.80,189.60 105.15,192.05 106.20,193.80 107.95,194.85 110.40,195.20"/>
    </edge>
    <edge id=":n6_11" function="internal">
        <lane id=":n6_11_0" index="0" speed="16.00" length="20.80" shape="104.80,189.60 104.80,210.40"/>
        <lane id=":n6_11_1" index="1" speed="16.00" length="20.80" shape="101.60,189.60 101.60,210.40"/>
    </edge>
    <edge id=":n6_13" function="internal">
        <lane id=":n6_13_0" index="0" speed="9.26" length="6.96" shape="101.60,189.60 100.85,194.85 100.00,196.27"/>
    </edge>
    <edge id=":n6_14" function="internal">
        <lane id=":n6_14_0" index="0" speed="3.65" length="2.34" shape="101.60,189.60 100.80,190.80 100.00,191.20"/>
    </edge>
    <edge id=":n6_24" function="internal">
        <lane id=":n6_24_0" index="0" speed="9.26" length="12.40" shape="100.00,196.27 98.60,198.60 94.85,200.85 89.60,201.60"/>
    </edge>
    <edge id=":n6_25" function="internal">
        <lane id=":n6_25_0" index="0" speed="3.65" length="2.34" shape="100.00,191.20 99.20,190.80 98.40,189.60"/>
    </edge>
    <edge id=":n6_15" function="internal">
        <lane id=":n6_15_0" index="0" speed="6.51" length="9.03" shape="89.60,195.20 92.05,194.85 93.80,193.80 94.85,192.05 95.20,189.60"/>
    </edge>
    <edge id=":n6_16" function="internal">
        <lane id=":n6_16_0" index="0" speed="16.00" length="20.80" shape="89.60,195.20 110.40,195.20"/>
        <lane id=":n6_16_1" index="1" speed="16.00" length="20.80" shape="89.60,198.40 110.40,198.40"/>
    </edge>
    <edge id=":n6_18" function="internal">
        <lane id=":n6_18_0" index="0" speed="9.26" length="6.96" shape="89.60,198.40 94.85,199.15 96.27,200.00"/>
    </edge>
    <edge id=":n6_19" function="internal">
        <lane id=":n6_19_0" index="0" speed="3.65" length="2.34" shape="89.60,198.40 90.80,199.20 91.20,200.00"/>
    </edge>
    <edge id=":n6_26" function="internal">
        <lane id=":n6_26_0" index="0" speed="9.26" length="12.40" shape="96.27,200.00 98.60,201.40 100.85,205.15 101.60,210.40"/>
    </edge>
    <edge id=":n6_27" function="internal">
        <lane id=":n6_27_0" index="0" speed="3.65" length="2.34" shape="91.20,200.00 90.80,200.80 89.60,201.60"/>
    </edge>
    <edge id=":n7_0" function="internal">
        <lane id=":n7_0_0" index="0" speed="3.65" length="4.67" shape="101.60,300.00 100.80,301.20 100.00,301.60 99.20,301.20 98.40,300.00"/>
    </edge>
    <edge id=":n8_0" function="internal">
        <lane id=":n8_0_0" index="0" speed="3.65" length="4.67" shape="148.40,0.00 149.20,-1.20 150.00,-1.60 150.80,-1.20 151.60,0.00"/>
    </edge>
    <edge id=":n9_0" function="internal">
        <lane id=":n9_0_0" index="0" speed="6.51" length="9.03" shape="145.20,110.40 144.85,107.95 143.80,106.20 142.05,105.15 139.60,104.80"/>
    </edge>
    <edge id=":n9_1" function="internal">
        <lane id=":n9_1_0" index="0" speed="16.00" length="20.80" shape="145.20,110.40 145.20,89.60"/>
        <lane id=":n9_1_1" index="1" speed="16.00" length="20.80" shape="148.40,110.40 148.40,89.60"/>
    </edge>
    <edge id=":n9_3" function="internal">
        <lane id=":n9_3_0" index="0" speed="9.26" length="6.96" shape="148.40,110.40 149.15,105.15 150.00,103.73"/>
    </edge>
    <edge id=":n9_4" function="internal">
        <lane id=":n9_4_0" index="0" speed="3.65" length="2.34" shape="148.40,110.40 149.20,109.20 150.00,108.80"/>
    </edge>
    <edge id=":n9_18" function="internal">
        <lane id=":n9_18_0" index="0" speed="9.26" length="12.40" shape="150.00,103.73 151.40,101.40 155.15,99.15 160.40,98.40"/>
    </edge>
    <edge id=":n9_19" function="internal">
        <lane id=":n9_19_0" index="0" speed="3.65" length="2.34" shape="150.00,108.80 150.80,109.20 151.60,110.40"/>
    </edge>
    <edge id=":n9_5" function="internal">
        <lane id=":n9_5_0" index="0" speed="7.33" length="11.73" shape="160.40,101.60 157.95,102.15 156.20,103.80 155.15,106.55 154.80,110.40"/>
    </edge>
    <edge id=":n9_6" function="internal">
        <lane id=":n9_6_0" index="0" speed="16.00" length="20.80" shape="160.40,101.60 139.60,101.60"/>
    </edge>
    <edge id=":n9_7" function="internal">
        <lane id=":n9_7_0" index="0" speed="9.26" length="10.03" shape="160.40,101.60 155.15,100.85 151.40,98.60 151.22,98.30"/>
    </edge>
    <edge id=":n9_8" function="internal">
        <lane id=":n9_8_0" index="0" speed="3.65" length="2.54" shape="160.40,101.60 159.20,100.80 158.80,100.00 158.89,99.82"/>
    </edge>
    <edge id=":n9_20" function="internal">
        <lane id=":n9_20_0" index="0" speed="9.26" length="9.33" shape="151.22,98.30 149.15,94.85 148.40,89.60"/>
    </edge>
    <edge id=":n9_21" function="internal">
        <lane id=":n9_21_0" index="0" speed="3.65" length="2.14" shape="158.89,99.82 159.20,99.20 160.40,98.40"/>
    </edge>
    <edge id=":n9_9" function="internal">
        <lane id=":n9_9_0" index="0" speed="7.33" length="11.73" shape="154.80,89.60 155.15,93.45 156.20,96.20 157.95,97.85 160.40,98.40"/>
    </edge>
    <edge id=":n9_10" function="internal">
        <lane id=":n9_10_0" index="0" speed="16.00" length="20.80" shape="154.80,89.60 154.80,110.40"/>
        <lane id=":n9_10_1" index="1" speed="16.00" length="20.80" shape="151.60,89.60 151.60,110.40"/>
    </edge>
    <edge id=":n9_12" function="internal">
        <lane id=":n9_12_0" index="0" speed="9.26" length="6.96" shape="151.60,89.60 150.85,94.85 150.00,96.27"/>
    </edge>
    <edge id=":n9_13" function="internal">
        <lane id=":n9_13_0" index="0" speed="3.65" length="2.34" shape="151.60,89.60 150.80,90.80 150.00,91.20"/>
    </edge>
    <edge id=":n9_22" function="internal">
        <lane id=":n9_22_0" index="0" speed="9.26" length="12.40" shape="150.00,96.27 148.60,98.60 144.85,100.85 139.60,101.60"/>
    </edge>
    <edge id=":n9_23" function="internal">
        <lane id=":n9_23_0" index="0" speed="3.65" length="2.34" shape="150.00,91.20 149.20,90.80 148.40,89.60"/>
    </edge>
    <edge id=":n9_14" function="internal">
        <lane id=":n9_14_0" index="0" speed="6.51" length="9.03" shape="139.60,95.20 142.05,94.85 143.80,93.80 144.85,92.05 145.20,89.60"/>
    </edge>
    <edge id=":n9_15" function="internal">
        <lane id=":n9_15_0" index="0" speed="16.00" length="21.09" shape="139.60,95.20 146.37,95.70 151.88,96.80 156.45,97.90 160.40,98.40"/>
    </edge>
    <edge id=":n9_16" function="internal">
        <lane id=":n9_16_0" index="0" speed="9.26" length="6.96" shape="139.60,98.40 144.85,99.15 146.27,100.00"/>
    </edge>
    <edge id=":n9_17" function="internal">
        <lane id=":n9_17_0" index="0" speed="3.65" length="2.34" shape="139.60,98.40 140.80,99.20 141.20,100.00"/>
    </edge>
    <edge id=":n9_24" function="internal">
        <lane id=":n9_24_0" index="0" speed="9.26" length="12.40" shape="146.27,100.00 148.60,101.40 150.85,105.15 151.60,110.40"/>
    </edge>
    <edge id=":n9_25" function="internal">
        <lane id=":n9_25_0" index="0" speed="3.65" length="2.34" shape="141.20,100.00 140.80,100.80 139.60,101.60"/>
    </edge>

    <edge id="n1-n2" from="n1" to="n2" priority="1" type="standardroad_in">
        <lane id="n1-n2_0" index="0" speed="16.00" length="89.60" shape="54.80,0.00 54.80,89.60"/>
        <lane id="n1-n2_1" index="1" speed="16.00" length="89.60" shape="51.60,0.00 51.60,89.60"/>
    </edge>
    <edge id="n10-n13" from="n10" to="n13" priority="1" type="onelane_out">
        <lane id="n10-n13_0" index="0" speed="16.00" length="89.60" shape="151.60,210.40 151.60,300.00"/>
    </edge>
    <edge id="n10-n6" from="n10" to="n6" priority="1" type="standardroad">
        <lane id="n10-n6_0" index="0" speed="16.00" length="29.20" shape="139.60,204.80 110.40,204.80"/>
        <lane id="n10-n6_1" index="1" speed="16.00" length="29.20" shape="139.60,201.60 110.40,201.60"/>
    </edge>
    <edge id="n10-n9" from="n10" to="n9" priority="1" type="standardroad">
        <lane id="n10-n9_0" index="0" speed="16.00" length="79.20" shape="145.20,189.60 145.20,110.40"/>
        <lane id="n10-n9_1" index="1" speed="16.00" length="79.20" shape="148.40,189.60 148.40,110.40"/>
    </edge>
    <edge id="n11-n2" from="n11" to="n2" priority="1" type="onelane_in">
        <lane id="n11-n2_0" index="0" speed="16.00" length="39.60" shape="0.00,98.40 39.60,98.40"/>
    </edge>
    <edge id="n12-n3" from="n12" to="n3" priority="1" type="onelane_in">
        <lane id="n12-n3_0" index="0" speed="16.00" length="89.60" shape="48.40,300.00 48.40,210.40"/>
    </edge>
    <edge id="n13-n10" from="n13" to="n10" priority="1" type="onelane_in">
        <lane id="n13-n10_0" index="0" speed="16.00" length="89.60" shape="148.40,300.00 148.40,210.40"/>
    </edge>
    <edge id="n14-n9" from="n14" to="n9" priority="1" type="onelane_in">
        <lane id="n14-n9_0" index="0" speed="16.00" length="39.60" shape="200.00,101.60 160.40,101.60"/>
    </edge>
    <edge id="n2-n1" from="n2" to="n1" priority="1" type="standardroad_out">
        <lane id="n2-n1_0" index="0" speed="16.00" length="89.60" shape="45.20,89.60 45.20,0.00"/>
        <lane id="n2-n1_1" index="1" speed="16.00" length="89.60" shape="48.40,89.60 48.40,0.00"/>
    </edge>
    <edge id="n2-n11" from="n2" to="n11" priority="1" type="onelane_out">
        <lane id="n2-n11_0" index="0" speed="16.00" length="39.60" shape="39.60,101.60 0.00,101.60"/>
    </edge>
    <edge id="n2-n3" from="n2" to="n3" priority="1" type="standardroad">
        <lane id="n2-n3_0" index="0" speed="16.00" length="79.20" shape="54.80,110.40 54.80,189.60"/>
        <lane id="n2-n3_1" index="1" speed="16.00" length="79.20" shape="51.60,110.40 51.60,189.60"/>
    </edge>
    <edge id="n2-n5" from="n2" to="n5" priority="1" type="standardroad">
        <lane id="n2-n5_0" index="0" speed="16.00" length="29.20" shape="60.40,95.20 89.60,95.20"/>
        <lane id="n2-n5_1" index="1" speed="16.00" length="29.20" shape="60.40,98.40 89.60,98.40"/>
    </edge>
    <edge id="n3-n12" from="n3" to="n12" priority="1" type="onelane_out">
        <lane id="n3-n12_0" index="0" speed="16.00" length="89.60" shape="51.60,210.40 51.60,300.00"/>
    </edge>
    <edge id="n3-n2" from="n3" to="n2" priority="1" type="standardroad">
        <lane id="n3-n2_0" index="0" speed="16.00" length="79.20" shape="45.20,189.60 45.20,110.40"/>
        <lane id="n3-n2_1" index="1" speed="16.00" length="79.20" shape="48.40,189.60 48.40,110.40"/>
    </edge>
    <edge id="n3-n6" from="n3" to="n6" priority="1" type="standardroad">
        <lane id="n3-n6_0" index="0" speed="16.00" length="29.20" shape="60.40,195.20 89.60,195.20"/>
        <lane id="n3-n6_1" index="1" speed="16.00" length="29.20" shape="60.40,198.40 89.60,198.40"/>
    </edge>
    <edge id="n4-n5" from="n4" to="n5" priority="1" type="standardroad_in">
        <lane id="n4-n5_0" index="0" speed="16.00" length="89.60" shape="104.80,0.00 104.80,89.60"/>
        <lane id="n4-n5_1" index="1" speed="16.00" length="89.60" shape="101.60,0.00 101.60,89.60"/>
    </edge>
    <edge id="n5-n2" from="n5" to="n2" priority="1" type="standardroad">
        <lane id="n5-n2_0" index="0" speed="16.00" length="29.20" shape="89.60,104.80 60.40,104.80"/>
        <lane id="n5-n2_1" index="1" speed="16.00" length="29.20" shape="89.60,101.60 60.40,101.60"/>
    </edge>
    <edge id="n5-n4" from="n5" to="n4" priority="1" type="standardroad_out">