<nodes>
    <!--Intersection nodes-->
    <node id="n1" x="100" y="100" type="unregulated"/>
    <node id="n2" x="100" y="200" type="traffic_light"/>
    <node id="n3" x="100" y="300" type="traffic_light"/>
    <node id="n4" x="150" y="100" type="unregulated"/>
    <node id="n5" x="150" y="200" type="traffic_light"/>
    <node id="n6" x="150" y="300" type="traffic_light"/>
    <node id="n7" x="150" y="400" type="unregulated"/>
    <node id="n8" x="200" y="100" type="unregulated"/>
    <node id="n9" x="200" y="200" type="traffic_light"/>
    <node id="n10" x="200" y="300" type="traffic_light"/>

    <!--Additional out and in nodes -->
    <node id="n11" x="50" y="200" type="unregulated"/>
    <node id="n12" x="100" y="400" type="unregulated"/>
    <node id="n13" x="200" y="400" type="unregulated"/>
    <node id="n14" x="250" y="200" type="unregulated"/>
</nodes>