<routes>
    <vType accel="1.0" decel="5.0" id="Car" jmIgnoreKeepClearTime="100.0" maxSpeed="30" length="3" />
        
    <!--emergencyDecel="0.0"-->
    <trip id="0" depart="0" from="n1-n4" to="n4-n1"/>
<trip id="1" depart="1" from="n1-n4" to="n4-n1"/>
<trip id="2" depart="2" from="n22-n19" to="n15-n20"/>
<trip id="3" depart="5" from="n22-n19" to="n17-n21"/>
<trip id="4" depart="5" from="n3-n10" to="n19-n22"/>
<trip id="5" depart="8" from="n20-n15" to="n5-n2"/>
<trip id="6" depart="9" from="n3-n10" to="n5-n2"/>
<trip id="7" depart="9" from="n3-n10" to="n5-n2"/>
<trip id="8" depart="9" from="n20-n15" to="n19-n22"/>
<trip id="9" depart="9" from="n2-n5" to="n17-n21"/>
<trip id="10" depart="11" from="n21-n17" to="n15-n20"/>
<trip id="11" depart="11" from="n1-n4" to="n4-n1"/>
<trip id="12" depart="12" from="n20-n15" to="n19-n22"/>
<trip id="13" depart="13" from="n3-n10" to="n4-n1"/>
<trip id="14" depart="14" from="n1-n4" to="n19-n22"/>
<trip id="15" depart="16" from="n20-n15" to="n4-n1"/>
<trip id="16" depart="17" from="n3-n10" to="n17-n21"/>
<trip id="17" depart="18" from="n22-n19" to="n4-n1"/>
<trip id="18" depart="20" from="n22-n19" to="n10-n3"/>
<trip id="19" depart="20" from="n22-n19" to="n4-n1"/>
<trip id="20" depart="22" from="n3-n10" to="n15-n20"/>
<trip id="21" depart="22" from="n21-n17" to="n10-n3"/>
<trip id="22" depart="23" from="n22-n19" to="n10-n3"/>
<trip id="23" depart="24" from="n21-n17" to="n5-n2"/>
<trip id="24" depart="26" from="n1-n4" to="n17-n21"/>
<trip id="25" depart="29" from="n2-n5" to="n10-n3"/>
<trip id="26" depart="33" from="n22-n19" to="n10-n3"/>
<trip id="27" depart="37" from="n1-n4" to="n10-n3"/>
<trip id="28" depart="37" from="n22-n19" to="n19-n22"/>
<trip id="29" depart="38" from="n3-n10" to="n5-n2"/>
<trip id="30" depart="39" from="n22-n19" to="n19-n22"/>
<trip id="31" depart="39" from="n2-n5" to="n19-n22"/>
<trip id="32" depart="39" from="n1-n4" to="n5-n2"/>
<trip id="33" depart="40" from="n2-n5" to="n4-n1"/>
<trip id="34" depart="40" from="n21-n17" to="n17-n21"/>
<trip id="35" depart="40" from="n3-n10" to="n19-n22"/>
<trip id="36" depart="41" from="n1-n4" to="n15-n20"/>
<trip id="37" depart="42" from="n20-n15" to="n19-n22"/>
<trip id="38" depart="42" from="n20-n15" to="n5-n2"/>
<trip id="39" depart="42" from="n1-n4" to="n19-n22"/>
<trip id="40" depart="44" from="n21-n17" to="n10-n3"/>
<trip id="41" depart="44" from="n1-n4" to="n17-n21"/>
<trip id="42" depart="45" from="n2-n5" to="n5-n2"/>
<trip id="43" depart="45" from="n1-n4" to="n4-n1"/>
<trip id="44" depart="47" from="n21-n17" to="n10-n3"/>
<trip id="45" depart="48" from="n20-n15" to="n17-n21"/>
<trip id="46" depart="48" from="n20-n15" to="n17-n21"/>
<trip id="47" depart="48" from="n22-n19" to="n15-n20"/>
<trip id="48" depart="49" from="n1-n4" to="n15-n20"/>
<trip id="49" depart="49" from="n20-n15" to="n17-n21"/>
<trip id="50" depart="49" from="n21-n17" to="n19-n22"/>
<trip id="51" depart="50" from="n1-n4" to="n19-n22"/>
<trip id="52" depart="50" from="n20-n15" to="n5-n2"/>
<trip id="53" depart="50" from="n21-n17" to="n5-n2"/>
<trip id="54" depart="52" from="n21-n17" to="n15-n20"/>
<trip id="55" depart="53" from="n20-n15" to="n15-n20"/>
<trip id="56" depart="55" from="n20-n15" to="n19-n22"/>
<trip id="57" depart="56" from="n3-n10" to="n5-n2"/>
<trip id="58" depart="57" from="n3-n10" to="n4-n1"/>
<trip id="59" depart="58" from="n2-n5" to="n5-n2"/>
<trip id="60" depart="59" from="n3-n10" to="n19-n22"/>
<trip id="61" depart="59" from="n3-n10" to="n4-n1"/>
<trip id="62" depart="60" from="n3-n10" to="n10-n3"/>
<trip id="63" depart="60" from="n22-n19" to="n5-n2"/>
<trip id="64" depart="62" from="n2-n5" to="n4-n1"/>
<trip id="65" depart="62" from="n20-n15" to="n15-n20"/>
<trip id="66" depart="63" from="n1-n4" to="n15-n20"/>
<trip id="67" depart="64" from="n22-n19" to="n17-n21"/>
<trip id="68" depart="65" from="n21-n17" to="n10-n3"/>
<trip id="69" depart="65" from="n22-n19" to="n4-n1"/>
<trip id="70" depart="66" from="n22-n19" to="n4-n1"/>
<trip id="71" depart="66" from="n22-n19" to="n4-n1"/>
<trip id="72" depart="68" from="n21-n17" to="n15-n20"/>
<trip id="73" depart="68" from="n20-n15" to="n17-n21"/>
<trip id="74" depart="68" from="n21-n17" to="n4-n1"/>
<trip id="75" depart="70" from="n1-n4" to="n15-n20"/>
<trip id="76" depart="70" from="n3-n10" to="n15-n20"/>
<trip id="77" depart="72" from="n22-n19" to="n4-n1"/>
<trip id="78" depart="72" from="n2-n5" to="n5-n2"/>
<trip id="79" depart="73" from="n2-n5" to="n5-n2"/>
<trip id="80" depart="76" from="n21-n17" to="n4-n1"/>
<trip id="81" depart="84" from="n3-n10" to="n17-n21"/>
<trip id="82" depart="85" from="n3-n10" to="n15-n20"/>
<trip id="83" depart="88" from="n1-n4" to="n17-n21"/>
<trip id="84" depart="88" from="n1-n4" to="n5-n2"/>
<trip id="85" depart="88" from="n2-n5" to="n4-n1"/>
<trip id="86" depart="89" from="n2-n5" to="n5-n2"/>
<trip id="87" depart="90" from="n22-n19" to="n19-n22"/>
<trip id="88" depart="90" from="n2-n5" to="n15-n20"/>
<trip id="89" depart="90" from="n3-n10" to="n15-n20"/>
<trip id="90" depart="91" from="n1-n4" to="n17-n21"/>
<trip id="91" depart="92" from="n1-n4" to="n19-n22"/>
<trip id="92" depart="93" from="n22-n19" to="n15-n20"/>
<trip id="93" depart="93" from="n21-n17" to="n5-n2"/>
<trip id="94" depart="97" from="n1-n4" to="n19-n22"/>
<trip id="95" depart="97" from="n20-n15" to="n17-n21"/>
<trip id="96" depart="97" from="n21-n17" to="n17-n21"/>
<trip id="97" depart="98" from="n21-n17" to="n5-n2"/>
<trip id="98" depart="98" from="n3-n10" to="n15-n20"/>
<trip id="99" depart="99" from="n20-n15" to="n5-n2"/>
<trip id="100" depart="99" from="n22-n19" to="n5-n2"/>
<trip id="101" depart="99" from="n20-n15" to="n4-n1"/>
<trip id="102" depart="100" from="n1-n4" to="n17-n21"/>
<trip id="103" depart="102" from="n1-n4" to="n19-n22"/>
<trip id="104" depart="103" from="n1-n4" to="n4-n1"/>
<trip id="105" depart="103" from="n22-n19" to="n15-n20"/>
<trip id="106" depart="104" from="n22-n19" to="n15-n20"/>
<trip id="107" depart="105" from="n2-n5" to="n19-n22"/>
<trip id="108" depart="106" from="n3-n10" to="n17-n21"/>
<trip id="109" depart="109" from="n2-n5" to="n10-n3"/>
<trip id="110" depart="114" from="n3-n10" to="n15-n20"/>
<trip id="111" depart="114" from="n20-n15" to="n19-n22"/>
<trip id="112" depart="114" from="n20-n15" to="n15-n20"/>
<trip id="113" depart="115" from="n21-n17" to="n5-n2"/>
<trip id="114" depart="116" from="n2-n5" to="n15-n20"/>
<trip id="115" depart="117" from="n3-n10" to="n10-n3"/>
<trip id="116" depart="117" from="n2-n5" to="n15-n20"/>
<trip id="117" depart="119" from="n2-n5" to="n15-n20"/>
<trip id="118" depart="120" from="n1-n4" to="n15-n20"/>
<trip id="119" depart="121" from="n22-n19" to="n4-n1"/>
<trip id="120" depart="122" from="n3-n10" to="n17-n21"/>
<trip id="121" depart="122" from="n22-n19" to="n5-n2"/>
<trip id="122" depart="122" from="n20-n15" to="n15-n20"/>
<trip id="123" depart="123" from="n3-n10" to="n4-n1"/>
<trip id="124" depart="123" from="n3-n10" to="n19-n22"/>
<trip id="125" depart="124" from="n3-n10" to="n19-n22"/>
<trip id="126" depart="125" from="n1-n4" to="n17-n21"/>
<trip id="127" depart="126" from="n20-n15" to="n17-n21"/>
<trip id="128" depart="128" from="n20-n15" to="n15-n20"/>
<trip id="129" depart="128" from="n20-n15" to="n5-n2"/>
<trip id="130" depart="128" from="n21-n17" to="n19-n22"/>
<trip id="131" depart="132" from="n2-n5" to="n19-n22"/>
<trip id="132" depart="133" from="n20-n15" to="n17-n21"/>
<trip id="133" depart="134" from="n22-n19" to="n15-n20"/>
<trip id="134" depart="135" from="n2-n5" to="n15-n20"/>
<trip id="135" depart="135" from="n2-n5" to="n19-n22"/>
<trip id="136" depart="135" from="n22-n19" to="n10-n3"/>
<trip id="137" depart="136" from="n3-n10" to="n19-n22"/>
<trip id="138" depart="136" from="n1-n4" to="n15-n20"/>
<trip id="139" depart="138" from="n22-n19" to="n15-n20"/>
<trip id="140" depart="138" from="n3-n10" to="n10-n3"/>
<trip id="141" depart="141" from="n3-n10" to="n5-n2"/>
<trip id="142" depart="142" from="n22-n19" to="n17-n21"/>
<trip id="143" depart="143" from="n22-n19" to="n10-n3"/>
<trip id="144" depart="144" from="n20-n15" to="n19-n22"/>
<trip id="145" depart="144" from="n1-n4" to="n19-n22"/>
<trip id="146" depart="144" from="n22-n19" to="n15-n20"/>
<trip id="147" depart="145" from="n1-n4" to="n5-n2"/>
<trip id="148" depart="145" from="n21-n17" to="n10-n3"/>
<trip id="149" depart="147" from="n3-n10" to="n10-n3"/>
<trip id="150" depart="147" from="n1-n4" to="n17-n21"/>
<trip id="151" depart="147" from="n2-n5" to="n17-n21"/>
<trip id="152" depart="148" from="n1-n4" to="n4-n1"/>
<trip id="153" depart="148" from="n2-n5" to="n19-n22"/>
<trip id="154" depart="149" from="n20-n15" to="n4-n1"/>
<trip id="155" depart="151" from="n1-n4" to="n15-n20"/>
<trip id="156" depart="153" from="n22-n19" to="n5-n2"/>
<trip id="157" depart="154" from="n3-n10" to="n17-n21"/>
<trip id="158" depart="155" from="n3-n10" to="n17-n21"/>
<trip id="159" depart="157" from="n3-n10" to="n4-n1"/>
<trip id="160" depart="157" from="n21-n17" to="n4-n1"/>
<trip id="161" depart="159" from="n3-n10" to="n5-n2"/>
<trip id="162" depart="160" from="n22-n19" to="n15-n20"/>
<trip id="163" depart="162" from="n1-n4" to="n5-n2"/>
<trip id="164" depart="163" from="n20-n15" to="n5-n2"/>
<trip id="165" depart="163" from="n22-n19" to="n17-n21"/>
<trip id="166" depart="165" from="n1-n4" to="n17-n21"/>
<trip id="167" depart="165" from="n20-n15" to="n10-n3"/>
<trip id="168" depart="166" from="n20-n15" to="n10-n3"/>
<trip id="169" depart="169" from="n22-n19" to="n5-n2"/>
<trip id="170" depart="170" from="n22-n19" to="n17-n21"/>
<trip id="171" depart="171" from="n22-n19" to="n17-n21"/>
<trip id="172" depart="171" from="n22-n19" to="n15-n20"/>
<trip id="173" depart="173" from="n3-n10" to="n10-n3"/>
<trip id="174" depart="173" from="n1-n4" to="n15-n20"/>
<trip id="175" depart="177" from="n21-n17" to="n10-n3"/>
<trip id="176" depart="178" from="n3-n10" to="n17-n21"/>
<trip id="177" depart="179" from="n3-n10" to="n4-n1"/>
<trip id="178" depart="179" from="n22-n19" to="n17-n21"/>
<trip id="179" depart="181" from="n22-n19" to="n5-n2"/>
<trip id="180" depart="182" from="n2-n5" to="n5-n2"/>
<trip id="181" depart="182" from="n3-n10" to="n19-n22"/>
<trip id="182" depart="185" from="n1-n4" to="n10-n3"/>
<trip id="183" depart="186" from="n21-n17" to="n15-n20"/>
<trip id="184" depart="187" from="n22-n19" to="n17-n21"/>
<trip id="185" depart="189" from="n1-n4" to="n19-n22"/>
<trip id="186" depart="189" from="n1-n4" to="n17-n21"/>
<trip id="187" depart="191" from="n1-n4" to="n10-n3"/>
<trip id="188" depart="193" from="n1-n4" to="n5-n2"/>
<trip id="189" depart="197" from="n2-n5" to="n15-n20"/>
<trip id="190" depart="197" from="n22-n19" to="n17-n21"/>
<trip id="191" depart="201" from="n3-n10" to="n5-n2"/>
<trip id="192" depart="202" from="n1-n4" to="n15-n20"/>
<trip id="193" depart="204" from="n2-n5" to="n4-n1"/>
<trip id="194" depart="205" from="n22-n19" to="n15-n20"/>
<trip id="195" depart="207" from="n2-n5" to="n10-n3"/>
<trip id="196" depart="210" from="n21-n17" to="n10-n3"/>
<trip id="197" depart="210" from="n3-n10" to="n5-n2"/>
<trip id="198" depart="211" from="n3-n10" to="n17-n21"/>
<trip id="199" depart="211" from="n3-n10" to="n10-n3"/>
<trip id="200" depart="211" from="n21-n17" to="n19-n22"/>
<trip id="201" depart="212" from="n1-n4" to="n10-n3"/>
<trip id="202" depart="214" from="n20-n15" to="n5-n2"/>
<trip id="203" depart="214" from="n3-n10" to="n15-n20"/>
<trip id="204" depart="218" from="n1-n4" to="n15-n20"/>
<trip id="205" depart="219" from="n2-n5" to="n17-n21"/>
<trip id="206" depart="223" from="n21-n17" to="n4-n1"/>
<trip id="207" depart="224" from="n22-n19" to="n19-n22"/>
<trip id="208" depart="226" from="n22-n19" to="n15-n20"/>
<trip id="209" depart="227" from="n21-n17" to="n10-n3"/>
<trip id="210" depart="228" from="n22-n19" to="n4-n1"/>
<trip id="211" depart="229" from="n22-n19" to="n5-n2"/>
<trip id="212" depart="230" from="n2-n5" to="n17-n21"/>
<trip id="213" depart="231" from="n1-n4" to="n15-n20"/>
<trip id="214" depart="231" from="n3-n10" to="n10-n3"/>
<trip id="215" depart="231" from="n3-n10" to="n5-n2"/>
<trip id="216" depart="233" from="n3-n10" to="n4-n1"/>
<trip id="217" depart="233" from="n2-n5" to="n5-n2"/>
<trip id="218" depart="234" from="n22-n19" to="n4-n1"/>
<trip id="219" depart="234" from="n22-n19" to="n5-n2"/>
<trip id="220" depart="234" from="n2-n5" to="n4-n1"/>
<trip id="221" depart="235" from="n2-n5" to="n5-n2"/>
<trip id="222" depart="235" from="n22-n19" to="n17-n21"/>
<trip id="223" depart="236" from="n21-n17" to="n17-n21"/>
<trip id="224" depart="238" from="n21-n17" to="n15-n20"/>
<trip id="225" depart="239" from="n21-n17" to="n19-n22"/>
<trip id="226" depart="241" from="n21-n17" to="n19-n22"/>
<trip id="227" depart="242" from="n2-n5" to="n19-n22"/>
<trip id="228" depart="244" from="n3-n10" to="n17-n21"/>
<trip id="229" depart="244" from="n1-n4" to="n17-n21"/>
<trip id="230" depart="245" from="n1-n4" to="n17-n21"/>
<trip id="231" depart="247" from="n22-n19" to="n10-n3"/>
<trip id="232" depart="248" from="n22-n19" to="n19-n22"/>
<trip id="233" depart="249" from="n3-n10" to="n4-n1"/>
<trip id="234" depart="249" from="n21-n17" to="n10-n3"/>
<trip id="235" depart="249" from="n1-n4" to="n19-n22"/>
<trip id="236" depart="249" from="n3-n10" to="n17-n21"/>
<trip id="237" depart="250" from="n20-n15" to="n5-n2"/>
<trip id="238" depart="251" from="n2-n5" to="n10-n3"/>
<trip id="239" depart="251" from="n21-n17" to="n17-n21"/>
<trip id="240" depart="252" from="n20-n15" to="n10-n3"/>
<trip id="241" depart="254" from="n21-n17" to="n5-n2"/>
<trip id="242" depart="254" from="n20-n15" to="n10-n3"/>
<trip id="243" depart="256" from="n21-n17" to="n15-n20"/>
<trip id="244" depart="258" from="n2-n5" to="n15-n20"/>
<trip id="245" depart="258" from="n20-n15" to="n10-n3"/>
<trip id="246" depart="263" from="n22-n19" to="n10-n3"/>
<trip id="247" depart="263" from="n20-n15" to="n5-n2"/>
<trip id="248" depart="263" from="n1-n4" to="n4-n1"/>
<trip id="249" depart="264" from="n20-n15" to="n15-n20"/>
<trip id="250" depart="265" from="n1-n4" to="n17-n21"/>
<trip id="251" depart="265" from="n3-n10" to="n10-n3"/>
<trip id="252" depart="266" from="n2-n5" to="n10-n3"/>
<trip id="253" depart="266" from="n21-n17" to="n17-n21"/>
<trip id="254" depart="271" from="n2-n5" to="n10-n3"/>
<trip id="255" depart="272" from="n22-n19" to="n17-n21"/>
<trip id="256" depart="272" from="n1-n4" to="n15-n20"/>
<trip id="257" depart="272" from="n3-n10" to="n19-n22"/>
<trip id="258" depart="273" from="n21-n17" to="n10-n3"/>
<trip id="259" depart="275" from="n22-n19" to="n10-n3"/>
<trip id="260" depart="278" from="n3-n10" to="n5-n2"/>
<trip id="261" depart="278" from="n21-n17" to="n10-n3"/>
<trip id="262" depart="279" from="n21-n17" to="n15-n20"/>
<trip id="263" depart="280" from="n22-n19" to="n15-n20"/>
<trip id="264" depart="281" from="n22-n19" to="n10-n3"/>
<trip id="265" depart="282" from="n22-n19" to="n15-n20"/>
<trip id="266" depart="283" from="n21-n17" to="n4-n1"/>
<trip id="267" depart="283" from="n21-n17" to="n5-n2"/>
<trip id="268" depart="285" from="n1-n4" to="n10-n3"/>
<trip id="269" depart="285" from="n22-n19" to="n10-n3"/>
<trip id="270" depart="287" from="n22-n19" to="n17-n21"/>
<trip id="271" depart="289" from="n21-n17" to="n4-n1"/>
<trip id="272" depart="293" from="n3-n10" to="n19-n22"/>
<trip id="273" depart="295" from="n20-n15" to="n5-n2"/>
<trip id="274" depart="296" from="n20-n15" to="n5-n2"/>
<trip id="275" depart="296" from="n3-n10" to="n5-n2"/>
<trip id="276" depart="297" from="n1-n4" to="n10-n3"/>
<trip id="277" depart="298" from="n20-n15" to="n5-n2"/>
<trip id="278" depart="299" from="n22-n19" to="n4-n1"/>
<trip id="279" depart="299" from="n20-n15" to="n4-n1"/>
<trip id="280" depart="299" from="n2-n5" to="n5-n2"/>
<trip id="281" depart="299" from="n2-n5" to="n19-n22"/>
<trip id="282" depart="300" from="n3-n10" to="n4-n1"/>
<trip id="283" depart="301" from="n2-n5" to="n10-n3"/>
<trip id="284" depart="302" from="n3-n10" to="n17-n21"/>
<trip id="285" depart="304" from="n21-n17" to="n17-n21"/>
<trip id="286" depart="307" from="n3-n10" to="n4-n1"/>
<trip id="287" depart="307" from="n3-n10" to="n19-n22"/>
<trip id="288" depart="308" from="n1-n4" to="n4-n1"/>
<trip id="289" depart="314" from="n22-n19" to="n10-n3"/>
<trip id="290" depart="314" from="n21-n17" to="n17-n21"/>
<trip id="291" depart="316" from="n20-n15" to="n15-n20"/>
<trip id="292" depart="316" from="n1-n4" to="n17-n21"/>
<trip id="293" depart="316" from="n1-n4" to="n15-n20"/>
<trip id="294" depart="317" from="n22-n19" to="n19-n22"/>
<trip id="295" depart="320" from="n22-n19" to="n15-n20"/>
<trip id="296" depart="320" from="n2-n5" to="n17-n21"/>
<trip id="297" depart="320" from="n22-n19" to="n15-n20"/>
<trip id="298" depart="320" from="n1-n4" to="n4-n1"/>
<trip id="299" depart="321" from="n1-n4" to="n10-n3"/>
<trip id="300" depart="321" from="n3-n10" to="n15-n20"/>
<trip id="301" depart="322" from="n21-n17" to="n5-n2"/>
<trip id="302" depart="323" from="n20-n15" to="n19-n22"/>
<trip id="303" depart="324" from="n1-n4" to="n19-n22"/>
<trip id="304" depart="324" from="n20-n15" to="n19-n22"/>
<trip id="305" depart="324" from="n2-n5" to="n10-n3"/>
<trip id="306" depart="324" from="n2-n5" to="n17-n21"/>
<trip id="307" depart="326" from="n21-n17" to="n10-n3"/>
<trip id="308" depart="327" from="n22-n19" to="n4-n1"/>
<trip id="309" depart="327" from="n22-n19" to="n15-n20"/>
<trip id="310" depart="327" from="n2-n5" to="n4-n1"/>
<trip id="311" depart="328" from="n20-n15" to="n5-n2"/>
<trip id="312" depart="330" from="n21-n17" to="n17-n21"/>
<trip id="313" depart="330" from="n20-n15" to="n19-n22"/>
<trip id="314" depart="331" from="n2-n5" to="n10-n3"/>
<trip id="315" depart="332" from="n3-n10" to="n5-n2"/>
<trip id="316" depart="333" from="n21-n17" to="n4-n1"/>
<trip id="317" depart="334" from="n2-n5" to="n19-n22"/>
<trip id="318" depart="335" from="n21-n17" to="n19-n22"/>
<trip id="319" depart="337" from="n3-n10" to="n15-n20"/>
<trip id="320" depart="339" from="n21-n17" to="n4-n1"/>
<trip id="321" depart="339" from="n21-n17" to="n5-n2"/>
<trip id="322" depart="341" from="n1-n4" to="n5-n2"/>
<trip id="323" depart="341" from="n21-n17" to="n4-n1"/>
<trip id="324" depart="342" from="n21-n17" to="n5-n2"/>
<trip id="325" depart="343" from="n22-n19" to="n10-n3"/>
<trip id="326" depart="343" from="n22-n19" to="n19-n22"/>
<trip id="327" depart="344" from="n1-n4" to="n15-n20"/>
<trip id="328" depart="344" from="n20-n15" to="n19-n22"/>
<trip id="329" depart="345" from="n2-n5" to="n5-n2"/>
<trip id="330" depart="345" from="n3-n10" to="n5-n2"/>
<trip id="331" depart="347" from="n20-n15" to="n5-n2"/>
<trip id="332" depart="347" from="n1-n4" to="n4-n1"/>
<trip id="333" depart="348" from="n20-n15" to="n10-n3"/>
<trip id="334" depart="351" from="n2-n5" to="n4-n1"/>
<trip id="335" depart="351" from="n22-n19" to="n4-n1"/>
<trip id="336" depart="353" from="n20-n15" to="n4-n1"/>
<trip id="337" depart="353" from="n20-n15" to="n19-n22"/>
<trip id="338" depart="354" from="n20-n15" to="n5-n2"/>
<trip id="339" depart="354" from="n20-n15" to="n19-n22"/>
<trip id="340" depart="355" from="n2-n5" to="n19-n22"/>
<trip id="341" depart="356" from="n1-n4" to="n19-n22"/>
<trip id="342" depart="357" from="n21-n17" to="n17-n21"/>
<trip id="343" depart="357" from="n2-n5" to="n15-n20"/>
<trip id="344" depart="358" from="n21-n17" to="n10-n3"/>
<trip id="345" depart="358" from="n22-n19" to="n5-n2"/>
<trip id="346" depart="358" from="n20-n15" to="n10-n3"/>
<trip id="347" depart="359" from="n20-n15" to="n17-n21"/>
<trip id="348" depart="359" from="n21-n17" to="n10-n3"/>
<trip id="349" depart="360" from="n22-n19" to="n10-n3"/>
<trip id="350" depart="361" from="n3-n10" to="n10-n3"/>
<trip id="351" depart="361" from="n22-n19" to="n15-n20"/>
<trip id="352" depart="363" from="n3-n10" to="n4-n1"/>
<trip id="353" depart="363" from="n2-n5" to="n5-n2"/>
<trip id="354" depart="364" from="n21-n17" to="n17-n21"/>
<trip id="355" depart="367" from="n22-n19" to="n15-n20"/>
<trip id="356" depart="368" from="n21-n17" to="n4-n1"/>
<trip id="357" depart="368" from="n22-n19" to="n10-n3"/>
<trip id="358" depart="368" from="n20-n15" to="n4-n1"/>
<trip id="359" depart="368" from="n3-n10" to="n4-n1"/>
<trip id="360" depart="369" from="n1-n4" to="n5-n2"/>
<trip id="361" depart="369" from="n22-n19" to="n5-n2"/>
<trip id="362" depart="370" from="n20-n15" to="n5-n2"/>
<trip id="363" depart="370" from="n22-n19" to="n10-n3"/>
<trip id="364" depart="370" from="n3-n10" to="n19-n22"/>
<trip id="365" depart="371" from="n22-n19" to="n10-n3"/>
<trip id="366" depart="374" from="n21-n17" to="n5-n2"/>
<trip id="367" depart="375" from="n3-n10" to="n4-n1"/>
<trip id="368" depart="377" from="n22-n19" to="n17-n21"/>
<trip id="369" depart="377" from="n2-n5" to="n5-n2"/>
<trip id="370" depart="379" from="n3-n10" to="n10-n3"/>
<trip id="371" depart="380" from="n20-n15" to="n19-n22"/>
<trip id="372" depart="381" from="n1-n4" to="n19-n22"/>
<trip id="373" depart="381" from="n20-n15" to="n19-n22"/>
<trip id="374" depart="381" from="n1-n4" to="n19-n22"/>
<trip id="375" depart="381" from="n3-n10" to="n19-n22"/>
<trip id="376" depart="382" from="n3-n10" to="n4-n1"/>
<trip id="377" depart="383" from="n20-n15" to="n10-n3"/>
<trip id="378" depart="383" from="n2-n5" to="n17-n21"/>
<trip id="379" depart="385" from="n21-n17" to="n10-n3"/>
<trip id="380" depart="386" from="n22-n19" to="n10-n3"/>
<trip id="381" depart="387" from="n3-n10" to="n10-n3"/>
<trip id="382" depart="391" from="n1-n4" to="n4-n1"/>
<trip id="383" depart="392" from="n20-n15" to="n17-n21"/>
<trip id="384" depart="392" from="n22-n19" to="n17-n21"/>
<trip id="385" depart="392" from="n21-n17" to="n5-n2"/>
<trip id="386" depart="394" from="n22-n19" to="n5-n2"/>
<trip id="387" depart="396" from="n2-n5" to="n17-n21"/>
<trip id="388" depart="397" from="n21-n17" to="n5-n2"/>
<trip id="389" depart="397" from="n1-n4" to="n15-n20"/>
<trip id="390" depart="399" from="n3-n10" to="n4-n1"/>
<trip id="391" depart="401" from="n20-n15" to="n15-n20"/>
<trip id="392" depart="402" from="n22-n19" to="n17-n21"/>
<trip id="393" depart="402" from="n20-n15" to="n15-n20"/>
<trip id="394" depart="403" from="n20-n15" to="n10-n3"/>
<trip id="395" depart="404" from="n20-n15" to="n17-n21"/>
<trip id="396" depart="405" from="n21-n17" to="n5-n2"/>
<trip id="397" depart="406" from="n2-n5" to="n15-n20"/>
<trip id="398" depart="407" from="n20-n15" to="n10-n3"/>
<trip id="399" depart="408" from="n2-n5" to="n15-n20"/>
<trip id="400" depart="412" from="n3-n10" to="n19-n22"/>
<trip id="401" depart="412" from="n22-n19" to="n17-n21"/>
<trip id="402" depart="413" from="n21-n17" to="n15-n20"/>
<trip id="403" depart="415" from="n20-n15" to="n19-n22"/>
<trip id="404" depart="415" from="n2-n5" to="n4-n1"/>
<trip id="405" depart="416" from="n1-n4" to="n19-n22"/>
<trip id="406" depart="419" from="n21-n17" to="n15-n20"/>
<trip id="407" depart="420" from="n22-n19" to="n17-n21"/>
<trip id="408" depart="420" from="n21-n17" to="n17-n21"/>
<trip id="409" depart="421" from="n2-n5" to="n4-n1"/>
<trip id="410" depart="422" from="n21-n17" to="n4-n1"/>
<trip id="411" depart="422" from="n3-n10" to="n5-n2"/>
<trip id="412" depart="423" from="n2-n5" to="n19-n22"/>
<trip id="413" depart="424" from="n20-n15" to="n4-n1"/>
<trip id="414" depart="425" from="n21-n17" to="n19-n22"/>
<trip id="415" depart="425" from="n1-n4" to="n10-n3"/>
<trip id="416" depart="426" from="n20-n15" to="n4-n1"/>
<trip id="417" depart="427" from="n22-n19" to="n15-n20"/>
<trip id="418" depart="428" from="n22-n19" to="n15-n20"/>
<trip id="419" depart="429" from="n21-n17" to="n19-n22"/>
<trip id="420" depart="430" from="n22-n19" to="n10-n3"/>
<trip id="421" depart="430" from="n22-n19" to="n4-n1"/>
<trip id="422" depart="431" from="n3-n10" to="n10-n3"/>
<trip id="423" depart="432" from="n20-n15" to="n15-n20"/>
<trip id="424" depart="432" from="n21-n17" to="n10-n3"/>
<trip id="425" depart="433" from="n21-n17" to="n15-n20"/>
<trip id="426" depart="434" from="n21-n17" to="n15-n20"/>
<trip id="427" depart="434" from="n20-n15" to="n5-n2"/>
<trip id="428" depart="435" from="n3-n10" to="n17-n21"/>
<trip id="429" depart="436" from="n1-n4" to="n19-n22"/>
<trip id="430" depart="437" from="n21-n17" to="n17-n21"/>
<trip id="431" depart="438" from="n20-n15" to="n17-n21"/>
<trip id="432" depart="440" from="n2-n5" to="n5-n2"/>
<trip id="433" depart="441" from="n20-n15" to="n4-n1"/>
<trip id="434" depart="442" from="n3-n10" to="n4-n1"/>
<trip id="435" depart="442" from="n21-n17" to="n4-n1"/>
<trip id="436" depart="442" from="n3-n10" to="n10-n3"/>
<trip id="437" depart="444" from="n2-n5" to="n19-n22"/>
<trip id="438" depart="446" from="n20-n15" to="n5-n2"/>
<trip id="439" depart="447" from="n22-n19" to="n19-n22"/>
<trip id="440" depart="447" from="n21-n17" to="n5-n2"/>
<trip id="441" depart="447" from="n22-n19" to="n19-n22"/>
<trip id="442" depart="449" from="n2-n5" to="n5-n2"/>
<trip id="443" depart="450" from="n2-n5" to="n4-n1"/>
<trip id="444" depart="452" from="n3-n10" to="n15-n20"/>
<trip id="445" depart="452" from="n21-n17" to="n19-n22"/>
<trip id="446" depart="453" from="n2-n5" to="n17-n21"/>
<trip id="447" depart="454" from="n21-n17" to="n4-n1"/>
<trip id="448" depart="455" from="n3-n10" to="n4-n1"/>
<trip id="449" depart="458" from="n3-n10" to="n10-n3"/>
<trip id="450" depart="460" from="n1-n4" to="n15-n20"/>
<trip id="451" depart="461" from="n22-n19" to="n19-n22"/>
<trip id="452" depart="463" from="n2-n5" to="n19-n22"/>
<trip id="453" depart="464" from="n21-n17" to="n17-n21"/>
<trip id="454" depart="464" from="n2-n5" to="n10-n3"/>
<trip id="455" depart="466" from="n1-n4" to="n15-n20"/>
<trip id="456" depart="468" from="n3-n10" to="n10-n3"/>
<trip id="457" depart="469" from="n1-n4" to="n5-n2"/>
<trip id="458" depart="469" from="n1-n4" to="n19-n22"/>
<trip id="459" depart="472" from="n3-n10" to="n17-n21"/>
<trip id="460" depart="473" from="n20-n15" to="n19-n22"/>
<trip id="461" depart="473" from="n2-n5" to="n5-n2"/>
<trip id="462" depart="473" from="n1-n4" to="n17-n21"/>
<trip id="463" depart="473" from="n21-n17" to="n19-n22"/>
<trip id="464" depart="477" from="n2-n5" to="n15-n20"/>
<trip id="465" depart="477" from="n21-n17" to="n17-n21"/>
<trip id="466" depart="478" from="n2-n5" to="n17-n21"/>
<trip id="467" depart="478" from="n21-n17" to="n5-n2"/>
<trip id="468" depart="480" from="n2-n5" to="n4-n1"/>
<trip id="469" depart="481" from="n20-n15" to="n10-n3"/>
<trip id="470" depart="481" from="n21-n17" to="n5-n2"/>
<trip id="471" depart="483" from="n22-n19" to="n4-n1"/>
<trip id="472" depart="484" from="n3-n10" to="n15-n20"/>
<trip id="473" depart="485" from="n3-n10" to="n15-n20"/>
<trip id="474" depart="486" from="n1-n4" to="n17-n21"/>
<trip id="475" depart="487" from="n2-n5" to="n19-n22"/>
<trip id="476" depart="489" from="n1-n4" to="n19-n22"/>
<trip id="477" depart="489" from="n22-n19" to="n5-n2"/>
<trip id="478" depart="490" from="n3-n10" to="n19-n22"/>
<trip id="479" depart="490" from="n20-n15" to="n4-n1"/>
<trip id="480" depart="492" from="n3-n10" to="n10-n3"/>
<trip id="481" depart="492" from="n22-n19" to="n15-n20"/>
<trip id="482" depart="494" from="n3-n10" to="n17-n21"/>
<trip id="483" depart="498" from="n2-n5" to="n10-n3"/>
<trip id="484" depart="499" from="n22-n19" to="n4-n1"/>
<trip id="485" depart="501" from="n1-n4" to="n15-n20"/>
<trip id="486" depart="502" from="n2-n5" to="n15-n20"/>
<trip id="487" depart="505" from="n1-n4" to="n17-n21"/>
<trip id="488" depart="506" from="n21-n17" to="n15-n20"/>
<trip id="489" depart="507" from="n2-n5" to="n5-n2"/>
<trip id="490" depart="509" from="n21-n17" to="n10-n3"/>
<trip id="491" depart="510" from="n22-n19" to="n19-n22"/>
<trip id="492" depart="511" from="n20-n15" to="n4-n1"/>
<trip id="493" depart="511" from="n20-n15" to="n10-n3"/>
<trip id="494" depart="512" from="n1-n4" to="n4-n1"/>
<trip id="495" depart="514" from="n1-n4" to="n4-n1"/>
<trip id="496" depart="515" from="n22-n19" to="n15-n20"/>
<trip id="497" depart="515" from="n21-n17" to="n4-n1"/>
<trip id="498" depart="516" from="n1-n4" to="n17-n21"/>
<trip id="499" depart="517" from="n2-n5" to="n10-n3"/>
<trip id="500" depart="520" from="n3-n10" to="n10-n3"/>
<trip id="501" depart="521" from="n20-n15" to="n19-n22"/>
<trip id="502" depart="522" from="n2-n5" to="n19-n22"/>
<trip id="503" depart="523" from="n22-n19" to="n4-n1"/>
<trip id="504" depart="524" from="n20-n15" to="n17-n21"/>
<trip id="505" depart="525" from="n20-n15" to="n5-n2"/>
<trip id="506" depart="527" from="n3-n10" to="n10-n3"/>
<trip id="507" depart="527" from="n1-n4" to="n17-n21"/>
<trip id="508" depart="529" from="n1-n4" to="n17-n21"/>
<trip id="509" depart="530" from="n1-n4" to="n10-n3"/>
<trip id="510" depart="530" from="n2-n5" to="n10-n3"/>
<trip id="511" depart="530" from="n20-n15" to="n5-n2"/>
<trip id="512" depart="535" from="n3-n10" to="n19-n22"/>
<trip id="513" depart="537" from="n21-n17" to="n4-n1"/>
<trip id="514" depart="539" from="n3-n10" to="n19-n22"/>
<trip id="515" depart="539" from="n20-n15" to="n19-n22"/>
<trip id="516" depart="542" from="n22-n19" to="n15-n20"/>
<trip id="517" depart="542" from="n20-n15" to="n10-n3"/>
<trip id="518" depart="545" from="n20-n15" to="n5-n2"/>
<trip id="519" depart="548" from="n2-n5" to="n4-n1"/>
<trip id="520" depart="549" from="n2-n5" to="n10-n3"/>
<trip id="521" depart="552" from="n3-n10" to="n19-n22"/>
<trip id="522" depart="553" from="n3-n10" to="n5-n2"/>
<trip id="523" depart="554" from="n3-n10" to="n5-n2"/>