<edges>
    <!--vertical x500-->
    <edge from="n21" to="n1" id="n21-n1" numLanes="1" type="standardroad_in"/>
    <edge from="n1" to="n21" id="n1-n21" numLanes="1" type="standardroad_out"/>
    <edge from="n1" to="n2" id="n1-n2" numLanes="1" type="standardroad"/>
    <edge from="n2" to="n1" id="n2-n1" numLanes="1" type="standardroad"/>
    <edge from="n2" to="n3" id="n2-n3" numLanes="1" type="standardroad"/>
    <edge from="n3" to="n2" id="n3-n2" numLanes="1" type="standardroad"/>
    <edge from="n3" to="n4" id="n3-n4" numLanes="1" type="standardroad"/>
    <edge from="n4" to="n3" id="n4-n3" numLanes="1" type="standardroad"/>
    <edge from="n4" to="n22" id="n4-n22" numLanes="1" type="standardroad"/>
    <edge from="n22" to="n4" id="n22-n4" numLanes="1" type="standardroad"/>
    <edge from="n22" to="n35" id="n22-n35" numLanes="1" type="standardroad_out"/>
    <edge from="n35" to="n22" id="n35-n22" numLanes="1" type="standardroad_in"/>
    <!--vertical x1000-->
    <edge from="n23" to="n5" id="n23-n5" numLanes="1" type="standardroad_in"/>
    <edge from="n5" to="n23" id="n5-n23" numLanes="1" type="standardroad_out"/>
    <edge from="n5" to="n6" id="n5-n6" numLanes="1" type="standardroad"/>
    <edge from="n6" to="n5" id="n6-n5" numLanes="1" type="standardroad"/>
    <edge from="n6" to="n7" id="n6-n7" numLanes="1" type="standardroad"/>
    <edge from="n7" to="n6" id="n7-n6" numLanes="1" type="standardroad"/>
    <edge from="n7" to="n8" id="n7-n8" numLanes="1" type="standardroad"/>
    <edge from="n8" to="n7" id="n8-n7" numLanes="1" type="standardroad"/>
    <edge from="n8" to="n24" id="n8-n24" numLanes="1" type="standardroad"/>
    <edge from="n24" to="n8" id="n24-n8" numLanes="1" type="standardroad"/>
    <edge from="n24" to="n36" id="n24-n36" numLanes="1" type="standardroad_out"/>
    <edge from="n36" to="n24" id="n36-24" numLanes="1" type="standardroad_in"/>
    <!--vertical x1500-->
    <edge from="n25" to="n9" id="n25-n9" numLanes="1" type="standardroad_in"/>
    <edge from="n9" to="n25" id="n9-n25" numLanes="1" type="standardroad_out"/>
    <edge from="n9" to="n10" id="n9-n10" numLanes="1" type="standardroad"/>
    <edge from="n10" to="n9" id="n10-n9" numLanes="1" type="standardroad"/>
    <edge from="n10" to="n11" id="n10-n11" numLanes="1" type="standardroad"/>
    <edge from="n11" to="n10" id="n11-n10" numLanes="1" type="standardroad"/>
    <edge from="n11" to="n12" id="n11-n12" numLanes="1" type="standardroad"/>
    <edge from="n12" to="n11" id="n12-n11" numLanes="1" type="standardroad"/>
    <edge from="n12" to="n26" id="n12-n26" numLanes="1" type="standardroad"/>
    <edge from="n26" to="n12" id="n26-n12" numLanes="1" type="standardroad"/>
    <edge from="n26" to="n37" id="n26-37" numLanes="1" type="standardroad_out"/>
    <edge from="n37" to="n26" id="n37-26" numLanes="1" type="standardroad_in"/>
    <!--vertical x2000-->
    <edge from="n27" to="n13" id="n27-n13" numLanes="2" type="standardroad_in"/>
    <edge from="n13" to="n27" id="n13-n27" numLanes="2" type="standardroad_out"/>
    <edge from="n13" to="n14" id="n13-n14" numLanes="2" type="standardroad"/>
    <edge from="n14" to="n13" id="n14-n13" numLanes="2" type="standardroad"/>
    <edge from="n14" to="n49" id="n14-n49" numLanes="2" type="standardroad"/>
    <edge from="n49" to="n14" id="n49-n14" numLanes="2" type="standardroad"/>
    <edge from="n49" to="n15" id="n49-n15" numLanes="4" type="standardroad"/>
    <edge from="n15" to="n49" id="n15-n49" numLanes="2" type="standardroad"/>
    <edge from="n15" to="n47" id="n15-n47" numLanes="2" type="standardroad"/>
    <edge from="n47" to="n15" id="n47-n15" numLanes="4" type="standardroad"/>
    <edge from="n47" to="n16" id="n47-n16" numLanes="2" type="standardroad"/>
    <edge from="n16" to="n47" id="n16-n47" numLanes="2" type="standardroad"/>
    <edge from="n16" to="n28" id="n16-n28" numLanes="2" type="standardroad"/>
    <edge from="n28" to="n16" id="n28-n16" numLanes="2" type="standardroad"/>
    <edge from="n28" to="n38" id="n28-n38" numLanes="2" type="standardroad_out"/>
    <edge from="n38" to="n28" id="n38-n28" numLanes="2" type="standardroad_in"/>
    <!--vertical x2500-->
    <edge from="n40" to="n29" id="n40-n29" numLanes="1" type="standardroad_in"/>
    <edge from="n29" to="n40" id="n29-n40" numLanes="1" type="standardroad_out"/>
    <edge from="n29" to="n30" id="n29-n30" numLanes="1" type="standardroad"/>
    <edge from="n30" to="n29" id="n30-n29" numLanes="1" type="standardroad"/>
    <edge from="n30" to="n31" id="n30-n31" numLanes="1" type="standardroad"/>
    <edge from="n31" to="n30" id="n31-n30" numLanes="1" type="standardroad"/>
    <edge from="n31" to="n32" id="n31-n32" numLanes="1" type="standardroad"/>
    <edge from="n32" to="n31" id="n32-n31" numLanes="1" type="standardroad"/>
    <edge from="n32" to="n33" id="n32-n33" numLanes="1" type="standardroad"/>
    <edge from="n33" to="n32" id="n33-n32" numLanes="1" type="standardroad"/>
    <edge from="n33" to="n39" id="n33-n39" numLanes="1" type="standardroad_out"/>
    <edge from="n39" to="n33" id="n39-n33" numLanes="1" type="standardroad_in"/>
    <!--horizontal y500-->
    <edge from="n17" to="n1" id="n17-n1" numLanes="1" type="standardroad_in"/>
    <edge from="n1" to="n17" id="n1-n17" numLanes="1" type="standardroad_out"/>
    <edge from="n1" to="n5" id="n1-n5" numLanes="1" type="standardroad"/>
    <edge from="n5" to="n1" id="n5-n1" numLanes="1" type="standardroad"/>
    <edge from="n5" to="n9" id="n5-n9" numLanes="1" type="standardroad"/>
    <edge from="n9" to="n5" id="n9-n5" numLanes="1" type="standardroad"/>
    <edge from="n9" to="n13" id="n9-n13" numLanes="1" type="standardroad"/>
    <edge from="n13" to="n9" id="n13-n9" numLanes="1" type="standardroad"/>
    <edge from="n13" to="n29" id="n13-n29" numLanes="1" type="standardroad"/>
    <edge from="n29" to="n13" id="n29-n13" numLanes="1" type="standardroad"/>
    <edge from="n29" to="n41" id="n29-n41" numLanes="1" type="standardroad_out"/>
    <edge from="n41" to="n29" id="n41-n29" numLanes="1" type="standardroad_in"/>
    <!--horizontal y1000-->
    <edge from="n18" to="n2" id="n18-n2" numLanes="1" type="standardroad_in"/>
    <edge from="n2" to="n18" id="n2-n18" numLanes="1" type="standardroad_out"/>
    <edge from="n2" to="n6" id="n2-n6" numLanes="1" type="standardroad"/>
    <edge from="n6" to="n2" id="n6-n2" numLanes="1" type="standardroad"/>
    <edge from="n6" to="n10" id="n6-n10" numLanes="1" type="standardroad"/>
    <edge from="n10" to="n6" id="n10-n6" numLanes="1" type="standardroad"/>
    <edge from="n10" to="n14" id="n10-n14" numLanes="1" type="standardroad"/>
    <edge from="n14" to="n10" id="n14-n10" numLanes="1" type="standardroad"/>
    <edge from="n14" to="n30" id="n14-n30" numLanes="1" type="standardroad"/>
    <edge from="n30" to="n14" id="n30-14" numLanes="1" type="standardroad"/>
    <edge from="n30" to="n42" id="n30-42" numLanes="1" type="standardroad_out"/>
    <edge from="n42" to="n30" id="n42-n30" numLanes="1" type="standardroad_in"/>
    <!--horizontal y1500-->
    <edge from="n19" to="n3" id="n19-n3" numLanes="2" type="standardroad_in"/>
    <edge from="n3" to="n19" id="n3-n19" numLanes="2" type="standardroad_out"/>
    <edge from="n3" to="n7" id="n3-n7" numLanes="2" type="standardroad"/>
    <edge from="n7" to="n3" id="n7-n3" numLanes="2" type="standardroad"/>
    <edge from="n7" to="n11" id="n7-11" numLanes="2" type="standardroad"/>
    <edge from="n11" to="n7" id="n11-n7" numLanes="2" type="standardroad"/>
    <edge from="n11" to="n46" id="n11-n46" numLanes="2" type="standardroad"/>
    <edge from="n46" to="n11" id="n46-n11" numLanes="2" type="standardroad"/>
    <edge from="n46" to="n15" id="n46-n15" numLanes="4" type="standardroad"/>
    <edge from="n15" to="n46" id="n15-n46" numLanes="2" type="standardroad"/>
    <edge from="n15" to="n48" id="n15-n48" numLanes="2" type="standardroad"/>
    <edge from="n48" to="n15" id="n48-n15" numLanes="4" type="standardroad"/>
    <edge from="n48" to="n31" id="n48-n31" numLanes="2" type="standardroad"/>
    <edge from="n31" to="n48" id="n31-n48" numLanes="2" type="standardroad"/>
    <edge from="n31" to="n43" id="n31-n43" numLanes="2" type="standardroad_out"/>
    <edge from="n43" to="n31" id="n43-n31" numLanes="2" type="standardroad_in"/>
    <!--horizontal y2000-->
    <edge from="n20" to="n4" id="n20-n4" numLanes="1" type="standardroad_in"/>
    <edge from="n4" to="n20" id="n4-n20" numLanes="1" type="standardroad_out"/>
    <edge from="n4" to="n8" id="n4-n8" numLanes="1" type="standardroad"/>
    <edge from="n8" to="n4" id="n8-n4" numLanes="1" type="standardroad"/>
    <edge from="n8" to="n12" id="n8-12" numLanes="1" type="standardroad"/>
    <edge from="n12" to="n8" id="n12-n8" numLanes="1" type="standardroad"/>
    <edge from="n12" to="n16" id="n12-n16" numLanes="1" type="standardroad"/>
    <edge from="n16" to="n12" id="n16-n12" numLanes="1" type="standardroad"/>
    <edge from="n16" to="n32" id="n16-32" numLanes="1" type="standardroad"/>
    <edge from="n32" to="n16" id="n32-n16" numLanes="1" type="standardroad"/>
    <edge from="n32" to="n44" id="n32-n44" numLanes="1" type="standardroad_out"/>
    <edge from="n44" to="n32" id="n44-n32" numLanes="1" type="standardroad_in"/>
    <!--horizontal y2500-->
    <edge from="n34" to="n22" id="n34-n22" numLanes="1" type="standardroad_in"/>
    <edge from="n22" to="n34" id="n22-n34" numLanes="1" type="standardroad_out"/>
    <edge from="n22" to="n24" id="n22-n24" numLanes="1" type="standardroad"/>
    <edge from="n24" to="n22" id="n24-n22" numLanes="1" type="standardroad"/>
    <edge from="n24" to="n26" id="n24-n26" numLanes="1" type="standardroad"/>
    <edge from="n26" to="n24" id="n26-n24" numLanes="1" type="standardroad"/>
    <edge from="n26" to="n28" id="n26-n28" numLanes="1" type="standardroad"/>
    <edge from="n28" to="n26" id="n28-n26" numLanes="1" type="standardroad"/>
    <edge from="n28" to="n33" id="n28-n33" numLanes="1" type="standardroad"/>
    <edge from="n33" to="n28" id="n33-n28" numLanes="1" type="standardroad"/>
    <edge from="n33" to="n45" id="n33-n45" numLanes="1" type="standardroad_out"/>
    <edge from="n45" to="n33" id="n45-n33" numLanes="1" type="standardroad_in"/>
</edges>