<routes>
    <vType accel="1.0" decel="5.0" id="Car" jmIgnoreKeepClearTime="100.0" maxSpeed="30" length="3" />
        
    <!--emergencyDecel="0.0"-->
    <trip id="0" depart="0" from="n40-n29" to="n30-n42"/>
<trip id="1" depart="0" from="n43-n31" to="n33-n45"/>
<trip id="2" depart="0" from="n27-n13" to="n1-n17"/>
<trip id="3" depart="0" from="n39-n33" to="n26-n37"/>
<trip id="4" depart="0" from="n23-n5" to="n31-n43"/>
<trip id="5" depart="0" from="n25-n9" to="n28-n38"/>
<trip id="6" depart="1" from="n37-n26" to="n29-n40"/>
<trip id="7" depart="1" from="n39-n33" to="n29-n41"/>
<trip id="8" depart="1" from="n36-n24" to="n9-n25"/>
<trip id="9" depart="2" from="n25-n9" to="n22-n35"/>
<trip id="10" depart="2" from="n27-n13" to="n33-n45"/>
<trip id="11" depart="3" from="n35-n22" to="n9-n25"/>
<trip id="12" depart="3" from="n41-n29" to="n13-n27"/>
<trip id="13" depart="3" from="n36-n24" to="n30-n42"/>
<trip id="14" depart="3" from="n39-n33" to="n28-n38"/>
<trip id="15" depart="4" from="n36-n24" to="n3-n19"/>
<trip id="16" depart="4" from="n38-n28" to="n5-n23"/>
<trip id="17" depart="4" from="n23-n5" to="n3-n19"/>
<trip id="18" depart="4" from="n34-n22" to="n22-n34"/>
<trip id="19" depart="4" from="n40-n29" to="n32-n44"/>
<trip id="20" depart="5" from="n43-n31" to="n30-n42"/>
<trip id="21" depart="5" from="n20-n4" to="n26-n37"/>
<trip id="22" depart="6" from="n35-n22" to="n26-n37"/>
<trip id="23" depart="6" from="n17-n1" to="n30-n42"/>
<trip id="24" depart="6" from="n40-n29" to="n32-n44"/>
<trip id="25" depart="6" from="n23-n5" to="n13-n27"/>
<trip id="26" depart="7" from="n17-n1" to="n1-n17"/>
<trip id="27" depart="7" from="n38-n28" to="n3-n19"/>
<trip id="28" depart="7" from="n38-n28" to="n4-n20"/>
<trip id="29" depart="7" from="n45-n33" to="n1-n21"/>
<trip id="30" depart="7" from="n19-n3" to="n22-n34"/>
<trip id="31" depart="8" from="n18-n2" to="n28-n38"/>
<trip id="32" depart="8" from="n23-n5" to="n24-n36"/>
<trip id="33" depart="8" from="n39-n33" to="n29-n40"/>
<trip id="34" depart="8" from="n40-n29" to="n26-n37"/>
<trip id="35" depart="9" from="n43-n31" to="n9-n25"/>
<trip id="36" depart="9" from="n43-n31" to="n29-n40"/>
<trip id="37" depart="9" from="n40-n29" to="n3-n19"/>
<trip id="38" depart="10" from="n19-n3" to="n1-n17"/>
<trip id="39" depart="10" from="n43-n31" to="n5-n23"/>
<trip id="40" depart="11" from="n45-n33" to="n4-n20"/>
<trip id="41" depart="12" from="n41-n29" to="n22-n34"/>
<trip id="42" depart="12" from="n42-n30" to="n1-n21"/>
<trip id="43" depart="12" from="n39-n33" to="n24-n36"/>
<trip id="44" depart="13" from="n23-n5" to="n24-n36"/>
<trip id="45" depart="13" from="n40-n29" to="n1-n17"/>
<trip id="46" depart="13" from="n43-n31" to="n22-n34"/>
<trip id="47" depart="13" from="n19-n3" to="n5-n23"/>
<trip id="48" depart="14" from="n40-n29" to="n2-n18"/>
<trip id="49" depart="14" from="n18-n2" to="n26-n37"/>
<trip id="50" depart="14" from="n42-n30" to="n2-n18"/>
<trip id="51" depart="15" from="n37-n26" to="n26-n37"/>
<trip id="52" depart="15" from="n17-n1" to="n1-n17"/>
<trip id="53" depart="15" from="n43-n31" to="n32-n44"/>
<trip id="54" depart="16" from="n23-n5" to="n3-n19"/>
<trip id="55" depart="16" from="n38-n28" to="n26-n37"/>
<trip id="56" depart="16" from="n27-n13" to="n4-n20"/>
<trip id="57" depart="17" from="n36-n24" to="n22-n34"/>
<trip id="58" depart="17" from="n38-n28" to="n2-n18"/>
<trip id="59" depart="17" from="n45-n33" to="n22-n34"/>
<trip id="60" depart="17" from="n40-n29" to="n33-n39"/>
<trip id="61" depart="17" from="n21-n1" to="n22-n35"/>
<trip id="62" depart="17" from="n35-n22" to="n2-n18"/>
<trip id="63" depart="17" from="n20-n4" to="n33-n45"/>
<trip id="64" depart="18" from="n19-n3" to="n29-n40"/>
<trip id="65" depart="18" from="n40-n29" to="n30-n42"/>
<trip id="66" depart="18" from="n17-n1" to="n9-n25"/>
<trip id="67" depart="18" from="n45-n33" to="n22-n34"/>
<trip id="68" depart="18" from="n37-n26" to="n30-n42"/>
<trip id="69" depart="18" from="n43-n31" to="n24-n36"/>
<trip id="70" depart="18" from="n39-n33" to="n31-n43"/>
<trip id="71" depart="18" from="n38-n28" to="n13-n27"/>
<trip id="72" depart="19" from="n37-n26" to="n29-n41"/>
<trip id="73" depart="19" from="n44-n32" to="n33-n39"/>
<trip id="74" depart="20" from="n23-n5" to="n3-n19"/>
<trip id="75" depart="20" from="n20-n4" to="n4-n20"/>
<trip id="76" depart="20" from="n36-n24" to="n2-n18"/>
<trip id="77" depart="20" from="n18-n2" to="n29-n40"/>
<trip id="78" depart="21" from="n19-n3" to="n13-n27"/>
<trip id="79" depart="21" from="n36-n24" to="n4-n20"/>
<trip id="80" depart="22" from="n45-n33" to="n32-n44"/>
<trip id="81" depart="22" from="n38-n28" to="n29-n41"/>
<trip id="82" depart="22" from="n39-n33" to="n32-n44"/>
<trip id="83" depart="23" from="n39-n33" to="n22-n35"/>
<trip id="84" depart="23" from="n18-n2" to="n9-n25"/>
<trip id="85" depart="23" from="n25-n9" to="n1-n21"/>
<trip id="86" depart="23" from="n25-n9" to="n33-n45"/>
<trip id="87" depart="23" from="n40-n29" to="n1-n21"/>
<trip id="88" depart="23" from="n36-n24" to="n4-n20"/>
<trip id="89" depart="24" from="n37-n26" to="n1-n21"/>
<trip id="90" depart="24" from="n25-n9" to="n5-n23"/>
<trip id="91" depart="24" from="n34-n22" to="n13-n27"/>
<trip id="92" depart="24" from="n35-n22" to="n32-n44"/>
<trip id="93" depart="24" from="n34-n22" to="n3-n19"/>
<trip id="94" depart="24" from="n25-n9" to="n9-n25"/>
<trip id="95" depart="24" from="n17-n1" to="n22-n34"/>
<trip id="96" depart="25" from="n45-n33" to="n26-n37"/>
<trip id="97" depart="25" from="n41-n29" to="n29-n41"/>
<trip id="98" depart="26" from="n42-n30" to="n2-n18"/>
<trip id="99" depart="26" from="n43-n31" to="n22-n34"/>
<trip id="100" depart="26" from="n23-n5" to="n9-n25"/>
<trip id="101" depart="27" from="n40-n29" to="n13-n27"/>
<trip id="102" depart="27" from="n38-n28" to="n31-n43"/>
<trip id="103" depart="27" from="n17-n1" to="n13-n27"/>
<trip id="104" depart="27" from="n36-n24" to="n31-n43"/>
<trip id="105" depart="28" from="n20-n4" to="n26-n37"/>
<trip id="106" depart="28" from="n42-n30" to="n33-n39"/>
<trip id="107" depart="28" from="n23-n5" to="n30-n42"/>
<trip id="108" depart="28" from="n35-n22" to="n29-n41"/>
<trip id="109" depart="28" from="n20-n4" to="n29-n40"/>
<trip id="110" depart="29" from="n45-n33" to="n33-n45"/>
<trip id="111" depart="29" from="n39-n33" to="n4-n20"/>
<trip id="112" depart="30" from="n36-n24" to="n9-n25"/>
<trip id="113" depart="30" from="n43-n31" to="n5-n23"/>
<trip id="114" depart="30" from="n21-n1" to="n5-n23"/>
<trip id="115" depart="31" from="n39-n33" to="n26-n37"/>
<trip id="116" depart="31" from="n45-n33" to="n26-n37"/>
<trip id="117" depart="31" from="n20-n4" to="n24-n36"/>
<trip id="118" depart="31" from="n43-n31" to="n2-n18"/>
<trip id="119" depart="31" from="n23-n5" to="n24-n36"/>
<trip id="120" depart="31" from="n44-n32" to="n33-n39"/>
<trip id="121" depart="31" from="n37-n26" to="n33-n45"/>
<trip id="122" depart="32" from="n19-n3" to="n2-n18"/>
<trip id="123" depart="32" from="n41-n29" to="n33-n45"/>
<trip id="124" depart="32" from="n42-n30" to="n2-n18"/>
<trip id="125" depart="32" from="n40-n29" to="n1-n21"/>
<trip id="126" depart="32" from="n38-n28" to="n13-n27"/>
<trip id="127" depart="32" from="n18-n2" to="n26-n37"/>
<trip id="128" depart="33" from="n38-n28" to="n33-n39"/>
<trip id="129" depart="33" from="n42-n30" to="n22-n34"/>
<trip id="130" depart="34" from="n40-n29" to="n13-n27"/>
<trip id="131" depart="34" from="n42-n30" to="n29-n40"/>
<trip id="132" depart="34" from="n34-n22" to="n22-n35"/>
<trip id="133" depart="34" from="n35-n22" to="n29-n41"/>
<trip id="134" depart="34" from="n25-n9" to="n24-n36"/>
<trip id="135" depart="34" from="n40-n29" to="n28-n38"/>
<trip id="136" depart="34" from="n21-n1" to="n9-n25"/>
<trip id="137" depart="35" from="n42-n30" to="n26-n37"/>
<trip id="138" depart="35" from="n18-n2" to="n9-n25"/>
<trip id="139" depart="35" from="n45-n33" to="n4-n20"/>
<trip id="140" depart="36" from="n20-n4" to="n33-n45"/>
<trip id="141" depart="36" from="n45-n33" to="n28-n38"/>
<trip id="142" depart="36" from="n34-n22" to="n2-n18"/>
<trip id="143" depart="37" from="n38-n28" to="n1-n17"/>
<trip id="144" depart="37" from="n39-n33" to="n33-n39"/>
<trip id="145" depart="37" from="n40-n29" to="n22-n35"/>
<trip id="146" depart="37" from="n44-n32" to="n29-n41"/>
<trip id="147" depart="37" from="n27-n13" to="n5-n23"/>
<trip id="148" depart="37" from="n43-n31" to="n2-n18"/>
<trip id="149" depart="38" from="n34-n22" to="n13-n27"/>
<trip id="150" depart="38" from="n18-n2" to="n4-n20"/>
<trip id="151" depart="38" from="n43-n31" to="n26-n37"/>
<trip id="152" depart="39" from="n19-n3" to="n29-n41"/>
<trip id="153" depart="40" from="n40-n29" to="n5-n23"/>
<trip id="154" depart="40" from="n45-n33" to="n13-n27"/>
<trip id="155" depart="40" from="n17-n1" to="n4-n20"/>
<trip id="156" depart="41" from="n40-n29" to="n22-n35"/>
<trip id="157" depart="41" from="n34-n22" to="n4-n20"/>
<trip id="158" depart="41" from="n35-n22" to="n22-n34"/>
<trip id="159" depart="41" from="n42-n30" to="n13-n27"/>
<trip id="160" depart="41" from="n36-n24" to="n13-n27"/>
<trip id="161" depart="42" from="n23-n5" to="n24-n36"/>
<trip id="162" depart="42" from="n34-n22" to="n29-n40"/>
<trip id="163" depart="42" from="n40-n29" to="n22-n34"/>
<trip id="164" depart="42" from="n35-n22" to="n4-n20"/>
<trip id="165" depart="43" from="n23-n5" to="n1-n17"/>
<trip id="166" depart="43" from="n38-n28" to="n32-n44"/>
<trip id="167" depart="43" from="n36-n24" to="n13-n27"/>
<trip id="168" depart="44" from="n45-n33" to="n22-n34"/>
<trip id="169" depart="44" from="n36-n24" to="n9-n25"/>
<trip id="170" depart="44" from="n21-n1" to="n26-n37"/>
<trip id="171" depart="44" from="n42-n30" to="n1-n17"/>
<trip id="172" depart="44" from="n39-n33" to="n9-n25"/>
<trip id="173" depart="44" from="n18-n2" to="n22-n35"/>
<trip id="174" depart="45" from="n44-n32" to="n1-n17"/>
<trip id="175" depart="45" from="n43-n31" to="n31-n43"/>
<trip id="176" depart="45" from="n45-n33" to="n33-n39"/>
<trip id="177" depart="45" from="n18-n2" to="n28-n38"/>
<trip id="178" depart="46" from="n21-n1" to="n5-n23"/>
<trip id="179" depart="46" from="n34-n22" to="n1-n17"/>
<trip id="180" depart="47" from="n23-n5" to="n28-n38"/>
<trip id="181" depart="47" from="n37-n26" to="n28-n38"/>
<trip id="182" depart="47" from="n38-n28" to="n2-n18"/>
<trip id="183" depart="47" from="n19-n3" to="n29-n40"/>
<trip id="184" depart="48" from="n37-n26" to="n28-n38"/>
<trip id="185" depart="48" from="n21-n1" to="n4-n20"/>
<trip id="186" depart="48" from="n45-n33" to="n22-n34"/>
<trip id="187" depart="48" from="n27-n13" to="n4-n20"/>
<trip id="188" depart="49" from="n21-n1" to="n33-n39"/>
<trip id="189" depart="49" from="n44-n32" to="n9-n25"/>
<trip id="190" depart="50" from="n40-n29" to="n22-n34"/>
<trip id="191" depart="50" from="n27-n13" to="n24-n36"/>
<trip id="192" depart="51" from="n18-n2" to="n33-n39"/>
<trip id="193" depart="51" from="n42-n30" to="n22-n34"/>
<trip id="194" depart="51" from="n42-n30" to="n30-n42"/>
<trip id="195" depart="51" from="n35-n22" to="n31-n43"/>
<trip id="196" depart="51" from="n27-n13" to="n4-n20"/>
<trip id="197" depart="52" from="n38-n28" to="n33-n39"/>
<trip id="198" depart="52" from="n45-n33" to="n31-n43"/>
<trip id="199" depart="52" from="n43-n31" to="n30-n42"/>
<trip id="200" depart="52" from="n25-n9" to="n9-n25"/>
<trip id="201" depart="53" from="n25-n9" to="n33-n45"/>
<trip id="202" depart="53" from="n21-n1" to="n22-n34"/>
<trip id="203" depart="53" from="n39-n33" to="n5-n23"/>
<trip id="204" depart="53" from="n42-n30" to="n30-n42"/>
<trip id="205" depart="53" from="n27-n13" to="n22-n34"/>
<trip id="206" depart="53" from="n41-n29" to="n1-n17"/>
<trip id="207" depart="53" from="n17-n1" to="n33-n39"/>
<trip id="208" depart="54" from="n18-n2" to="n29-n41"/>
<trip id="209" depart="54" from="n45-n33" to="n28-n38"/>
<trip id="210" depart="54" from="n21-n1" to="n1-n21"/>
<trip id="211" depart="54" from="n17-n1" to="n33-n45"/>
<trip id="212" depart="54" from="n44-n32" to="n22-n35"/>
<trip id="213" depart="54" from="n41-n29" to="n32-n44"/>
<trip id="214" depart="55" from="n25-n9" to="n3-n19"/>
<trip id="215" depart="55" from="n38-n28" to="n1-n17"/>
<trip id="216" depart="55" from="n19-n3" to="n33-n39"/>
<trip id="217" depart="55" from="n23-n5" to="n22-n34"/>
<trip id="218" depart="56" from="n23-n5" to="n4-n20"/>
<trip id="219" depart="56" from="n42-n30" to="n9-n25"/>
<trip id="220" depart="57" from="n40-n29" to="n33-n39"/>
<trip id="221" depart="57" from="n34-n22" to="n5-n23"/>
<trip id="222" depart="57" from="n37-n26" to="n30-n42"/>
<trip id="223" depart="57" from="n35-n22" to="n31-n43"/>
<trip id="224" depart="57" from="n39-n33" to="n22-n35"/>
<trip id="225" depart="57" from="n34-n22" to="n24-n36"/>
<trip id="226" depart="57" from="n17-n1" to="n4-n20"/>
<trip id="227" depart="58" from="n27-n13" to="n2-n18"/>
<trip id="228" depart="58" from="n34-n22" to="n1-n17"/>
<trip id="229" depart="58" from="n17-n1" to="n33-n39"/>
<trip id="230" depart="58" from="n40-n29" to="n22-n35"/>
<trip id="231" depart="59" from="n42-n30" to="n5-n23"/>
<trip id="232" depart="59" from="n25-n9" to="n33-n39"/>
<trip id="233" depart="60" from="n19-n3" to="n9-n25"/>
<trip id="234" depart="60" from="n20-n4" to="n33-n39"/>
<trip id="235" depart="61" from="n45-n33" to="n13-n27"/>
<trip id="236" depart="61" from="n23-n5" to="n28-n38"/>
<trip id="237" depart="61" from="n35-n22" to="n26-n37"/>
<trip id="238" depart="61" from="n41-n29" to="n29-n41"/>
<trip id="239" depart="62" from="n25-n9" to="n26-n37"/>
<trip id="240" depart="64" from="n18-n2" to="n30-n42"/>
<trip id="241" depart="64" from="n18-n2" to="n32-n44"/>
<trip id="242" depart="64" from="n36-n24" to="n13-n27"/>
<trip id="243" depart="64" from="n45-n33" to="n3-n19"/>
<trip id="244" depart="64" from="n39-n33" to="n30-n42"/>
<trip id="245" depart="64" from="n25-n9" to="n29-n40"/>
<trip id="246" depart="65" from="n25-n9" to="n28-n38"/>
<trip id="247" depart="65" from="n18-n2" to="n2-n18"/>
<trip id="248" depart="65" from="n39-n33" to="n2-n18"/>
<trip id="249" depart="65" from="n42-n30" to="n33-n39"/>
<trip id="250" depart="66" from="n19-n3" to="n29-n40"/>
<trip id="251" depart="66" from="n18-n2" to="n30-n42"/>
<trip id="252" depart="66" from="n25-n9" to="n22-n34"/>
<trip id="253" depart="66" from="n39-n33" to="n13-n27"/>
<trip id="254" depart="66" from="n41-n29" to="n29-n41"/>
<trip id="255" depart="67" from="n36-n24" to="n1-n21"/>
<trip id="256" depart="67" from="n21-n1" to="n32-n44"/>
<trip id="257" depart="67" from="n41-n29" to="n26-n37"/>
<trip id="258" depart="67" from="n35-n22" to="n24-n36"/>
<trip id="259" depart="67" from="n43-n31" to="n4-n20"/>
<trip id="260" depart="67" from="n20-n4" to="n9-n25"/>
<trip id="261" depart="68" from="n41-n29" to="n22-n34"/>
<trip id="262" depart="68" from="n36-n24" to="n22-n34"/>
<trip id="263" depart="68" from="n41-n29" to="n33-n45"/>
<trip id="264" depart="69" from="n38-n28" to="n5-n23"/>
<trip id="265" depart="69" from="n35-n22" to="n28-n38"/>
<trip id="266" depart="69" from="n18-n2" to="n1-n21"/>
<trip id="267" depart="70" from="n34-n22" to="n22-n34"/>
<trip id="268" depart="70" from="n27-n13" to="n1-n21"/>
<trip id="269" depart="70" from="n20-n4" to="n1-n21"/>
<trip id="270" depart="70" from="n36-n24" to="n1-n17"/>
<trip id="271" depart="71" from="n17-n1" to="n22-n34"/>
<trip id="272" depart="71" from="n45-n33" to="n5-n23"/>
<trip id="273" depart="71" from="n25-n9" to="n28-n38"/>
<trip id="274" depart="71" from="n27-n13" to="n22-n35"/>
<trip id="275" depart="71" from="n35-n22" to="n13-n27"/>
<trip id="276" depart="72" from="n41-n29" to="n24-n36"/>
<trip id="277" depart="72" from="n43-n31" to="n30-n42"/>
<trip id="278" depart="72" from="n18-n2" to="n29-n40"/>
<trip id="279" depart="73" from="n41-n29" to="n31-n43"/>
<trip id="280" depart="73" from="n25-n9" to="n24-n36"/>
<trip id="281" depart="73" from="n43-n31" to="n1-n21"/>
<trip id="282" depart="74" from="n35-n22" to="n32-n44"/>
<trip id="283" depart="74" from="n20-n4" to="n33-n39"/>
<trip id="284" depart="74" from="n38-n28" to="n31-n43"/>
<trip id="285" depart="74" from="n34-n22" to="n31-n43"/>
<trip id="286" depart="74" from="n25-n9" to="n9-n25"/>
<trip id="287" depart="74" from="n42-n30" to="n33-n45"/>
<trip id="288" depart="74" from="n21-n1" to="n29-n41"/>
<trip id="289" depart="75" from="n39-n33" to="n13-n27"/>
<trip id="290" depart="75" from="n25-n9" to="n3-n19"/>
<trip id="291" depart="75" from="n25-n9" to="n32-n44"/>
<trip id="292" depart="75" from="n43-n31" to="n30-n42"/>
<trip id="293" depart="76" from="n27-n13" to="n29-n40"/>
<trip id="294" depart="76" from="n37-n26" to="n24-n36"/>
<trip id="295" depart="76" from="n27-n13" to="n29-n40"/>
<trip id="296" depart="77" from="n23-n5" to="n32-n44"/>
<trip id="297" depart="77" from="n17-n1" to="n13-n27"/>
<trip id="298" depart="78" from="n39-n33" to="n22-n34"/>
<trip id="299" depart="78" from="n35-n22" to="n29-n40"/>
<trip id="300" depart="78" from="n27-n13" to="n4-n20"/>
<trip id="301" depart="78" from="n35-n22" to="n33-n45"/>
<trip id="302" depart="79" from="n34-n22" to="n22-n35"/>
<trip id="303" depart="79" from="n38-n28" to="n30-n42"/>
<trip id="304" depart="79" from="n45-n33" to="n29-n41"/>
<trip id="305" depart="80" from="n41-n29" to="n22-n35"/>
<trip id="306" depart="80" from="n44-n32" to="n31-n43"/>
<trip id="307" depart="80" from="n43-n31" to="n9-n25"/>
<trip id="308" depart="80" from="n19-n3" to="n29-n40"/>
<trip id="309" depart="80" from="n17-n1" to="n22-n34"/>
<trip id="310" depart="81" from="n34-n22" to="n24-n36"/>
<trip id="311" depart="81" from="n38-n28" to="n24-n36"/>
<trip id="312" depart="81" from="n25-n9" to="n1-n21"/>
<trip id="313" depart="82" from="n42-n30" to="n4-n20"/>
<trip id="314" depart="82" from="n36-n24" to="n22-n34"/>
<trip id="315" depart="83" from="n23-n5" to="n9-n25"/>
<trip id="316" depart="83" from="n45-n33" to="n31-n43"/>
<trip id="317" depart="83" from="n38-n28" to="n33-n45"/>
<trip id="318" depart="83" from="n45-n33" to="n29-n40"/>
<trip id="319" depart="83" from="n43-n31" to="n1-n21"/>
<trip id="320" depart="83" from="n40-n29" to="n5-n23"/>
<trip id="321" depart="83" from="n40-n29" to="n22-n34"/>
<trip id="322" depart="83" from="n42-n30" to="n30-n42"/>
<trip id="323" depart="83" from="n39-n33" to="n3-n19"/>
<trip id="324" depart="84" from="n27-n13" to="n28-n38"/>
<trip id="325" depart="84" from="n40-n29" to="n26-n37"/>
<trip id="326" depart="84" from="n38-n28" to="n29-n41"/>
<trip id="327" depart="84" from="n23-n5" to="n33-n39"/>
<trip id="328" depart="85" from="n40-n29" to="n26-n37"/>
<trip id="329" depart="85" from="n42-n30" to="n3-n19"/>
<trip id="330" depart="85" from="n42-n30" to="n5-n23"/>
<trip id="331" depart="85" from="n34-n22" to="n22-n35"/>
<trip id="332" depart="85" from="n20-n4" to="n5-n23"/>
<trip id="333" depart="86" from="n18-n2" to="n2-n18"/>
<trip id="334" depart="86" from="n36-n24" to="n31-n43"/>
<trip id="335" depart="86" from="n43-n31" to="n13-n27"/>
<trip id="336" depart="86" from="n19-n3" to="n29-n41"/>
<trip id="337" depart="87" from="n25-n9" to="n22-n34"/>
<trip id="338" depart="87" from="n34-n22" to="n22-n35"/>
<trip id="339" depart="87" from="n20-n4" to="n2-n18"/>
<trip id="340" depart="88" from="n20-n4" to="n33-n45"/>
<trip id="341" depart="88" from="n19-n3" to="n29-n41"/>
<trip id="342" depart="88" from="n45-n33" to="n30-n42"/>
<trip id="343" depart="88" from="n21-n1" to="n33-n45"/>
<trip id="344" depart="89" from="n25-n9" to="n24-n36"/>
<trip id="345" depart="89" from="n34-n22" to="n30-n42"/>
<trip id="346" depart="89" from="n18-n2" to="n29-n40"/>
<trip id="347" depart="89" from="n38-n28" to="n26-n37"/>
<trip id="348" depart="89" from="n37-n26" to="n33-n45"/>
<trip id="349" depart="89" from="n43-n31" to="n1-n21"/>
<trip id="350" depart="90" from="n34-n22" to="n1-n21"/>
<trip id="351" depart="90" from="n42-n30" to="n1-n21"/>
<trip id="352" depart="90" from="n20-n4" to="n33-n39"/>
<trip id="353" depart="90" from="n19-n3" to="n31-n43"/>
<trip id="354" depart="90" from="n45-n33" to="n33-n39"/>
<trip id="355" depart="91" from="n43-n31" to="n22-n34"/>
<trip id="356" depart="91" from="n17-n1" to="n30-n42"/>
<trip id="357" depart="91" from="n19-n3" to="n26-n37"/>
<trip id="358" depart="93" from="n25-n9" to="n9-n25"/>
<trip id="359" depart="93" from="n44-n32" to="n32-n44"/>
<trip id="360" depart="93" from="n36-n24" to="n1-n17"/>
<trip id="361" depart="93" from="n25-n9" to="n13-n27"/>
<trip id="362" depart="93" from="n18-n2" to="n3-n19"/>
<trip id="363" depart="93" from="n19-n3" to="n30-n42"/>
<trip id="364" depart="94" from="n37-n26" to="n29-n41"/>
<trip id="365" depart="94" from="n42-n30" to="n1-n17"/>
<trip id="366" depart="94" from="n41-n29" to="n29-n40"/>
<trip id="367" depart="94" from="n19-n3" to="n22-n34"/>
<trip id="368" depart="95" from="n19-n3" to="n1-n17"/>
<trip id="369" depart="95" from="n39-n33" to="n28-n38"/>
<trip id="370" depart="95" from="n41-n29" to="n3-n19"/>
<trip id="371" depart="96" from="n40-n29" to="n33-n39"/>
<trip id="372" depart="96" from="n19-n3" to="n1-n17"/>
<trip id="373" depart="96" from="n40-n29" to="n13-n27"/>
<trip id="374" depart="96" from="n38-n28" to="n30-n42"/>
<trip id="375" depart="96" from="n36-n24" to="n1-n21"/>
<trip id="376" depart="96" from="n44-n32" to="n2-n18"/>
<trip id="377" depart="97" from="n18-n2" to="n29-n40"/>
<trip id="378" depart="97" from="n45-n33" to="n22-n34"/>
<trip id="379" depart="97" from="n37-n26" to="n1-n21"/>
<trip id="380" depart="97" from="n36-n24" to="n24-n36"/>
<trip id="381" depart="97" from="n27-n13" to="n28-n38"/>
<trip id="382" depart="97" from="n41-n29" to="n3-n19"/>
<trip id="383" depart="98" from="n45-n33" to="n1-n21"/>
<trip id="384" depart="98" from="n43-n31" to="n22-n35"/>
<trip id="385" depart="98" from="n38-n28" to="n22-n34"/>
<trip id="386" depart="98" from="n41-n29" to="n28-n38"/>
<trip id="387" depart="99" from="n18-n2" to="n29-n41"/>
<trip id="388" depart="99" from="n43-n31" to="n29-n40"/>
<trip id="389" depart="99" from="n38-n28" to="n3-n19"/>
<trip id="390" depart="99" from="n20-n4" to="n31-n43"/>
<trip id="391" depart="99" from="n41-n29" to="n1-n21"/>
<trip id="392" depart="99" from="n21-n1" to="n22-n35"/>
<trip id="393" depart="99" from="n25-n9" to="n33-n39"/>
<trip id="394" depart="99" from="n39-n33" to="n24-n36"/>
<trip id="395" depart="100" from="n27-n13" to="n5-n23"/>
<trip id="396" depart="100" from="n34-n22" to="n13-n27"/>
<trip id="397" depart="100" from="n45-n33" to="n22-n35"/>
<trip id="398" depart="100" from="n23-n5" to="n1-n17"/>
<trip id="399" depart="100" from="n44-n32" to="n32-n44"/>


</routes>