<?xml version="1.0" encoding="UTF-8"?>

<!-- generated on 10/03/19 09:58:13 by Eclipse SUMO netedit Version 1.1.0
<configuration xmlns:xsi="http://www.w3.org/2001/XMLSchema-instance" xsi:noNamespaceSchemaLocation="http://sumo.dlr.de/xsd/netconvertConfiguration.xsd">

    <input>
        <sumo-net-file value="C:\Users\Alexander%20Bilgram\Desktop\AAUP7\SUMOfiles\MasterNetFile.net.xml"/>
    </input>

    <output>
        <output-file value="C:\Users\Alexander%20Bilgram\Desktop\AAUP7\SUMOfiles\MasterNetFile.net.xml"/>
    </output>

    <processing>
        <geometry.max-grade.fix value="false"/>
        <offset.disable-normalization value="true"/>
        <lefthand value="false"/>
    </processing>

    <junctions>
        <no-turnarounds value="true"/>
        <junctions.corner-detail value="5"/>
        <junctions.limit-turn-speed value="5.5"/>
        <rectangular-lane-cut value="false"/>
    </junctions>

    <pedestrian>
        <walkingareas value="false"/>
    </pedestrian>

</configuration>
-->

<net version="1.1" junctionCornerDetail="5" limitTurnSpeed="5.50" xmlns:xsi="http://www.w3.org/2001/XMLSchema-instance" xsi:noNamespaceSchemaLocation="http://sumo.dlr.de/xsd/net_file.xsd">

    <location netOffset="0.00,0.00" convBoundary="0.00,0.00,1600.00,1600.00" origBoundary="0.00,0.00,1600.00,1600.00" projParameter="!"/>

    <type id="standardroad" priority="1" numLanes="2" speed="16.00"/>
    <type id="standardroad_in" priority="1" numLanes="2" speed="16.00"/>
    <type id="standardroad_out" priority="1" numLanes="2" speed="16.00"/>

    <edge id=":n1_0" function="internal">
        <lane id=":n1_0_0" index="0" speed="6.51" length="9.03" shape="398.40,407.20 398.05,404.75 397.00,403.00 395.25,401.95 392.80,401.60"/>
    </edge>
    <edge id=":n1_1" function="internal">
        <lane id=":n1_1_0" index="0" speed="16.00" length="14.40" shape="398.40,407.20 398.40,392.80"/>
    </edge>
    <edge id=":n1_2" function="internal">
        <lane id=":n1_2_0" index="0" speed="8.00" length="5.93" shape="398.40,407.20 398.95,403.35 400.00,401.60"/>
    </edge>
    <edge id=":n1_3" function="internal">
        <lane id=":n1_3_0" index="0" speed="3.65" length="2.34" shape="398.40,407.20 399.20,406.00 400.00,405.60"/>
    </edge>
    <edge id=":n1_16" function="internal">
        <lane id=":n1_16_0" index="0" speed="8.00" length="8.26" shape="400.00,401.60 400.60,400.60 403.35,398.95 407.20,398.40"/>
    </edge>
    <edge id=":n1_17" function="internal">
        <lane id=":n1_17_0" index="0" speed="3.65" length="2.34" shape="400.00,405.60 400.80,406.00 401.60,407.20"/>
    </edge>
    <edge id=":n1_4" function="internal">
        <lane id=":n1_4_0" index="0" speed="6.51" length="9.03" shape="407.20,401.60 404.75,401.95 403.00,403.00 401.95,404.75 401.60,407.20"/>
    </edge>
    <edge id=":n1_5" function="internal">
        <lane id=":n1_5_0" index="0" speed="16.00" length="14.40" shape="407.20,401.60 392.80,401.60"/>
    </edge>
    <edge id=":n1_6" function="internal">
        <lane id=":n1_6_0" index="0" speed="8.00" length="5.93" shape="407.20,401.60 403.35,401.05 401.60,400.00"/>
    </edge>
    <edge id=":n1_7" function="internal">
        <lane id=":n1_7_0" index="0" speed="3.65" length="2.34" shape="407.20,401.60 406.00,400.80 405.60,400.00"/>
    </edge>
    <edge id=":n1_18" function="internal">
        <lane id=":n1_18_0" index="0" speed="8.00" length="8.26" shape="401.60,400.00 400.60,399.40 398.95,396.65 398.40,392.80"/>
    </edge>
    <edge id=":n1_19" function="internal">
        <lane id=":n1_19_0" index="0" speed="3.65" length="2.34" shape="405.60,400.00 406.00,399.20 407.20,398.40"/>
    </edge>
    <edge id=":n1_8" function="internal">
        <lane id=":n1_8_0" index="0" speed="6.51" length="9.03" shape="401.60,392.80 401.95,395.25 403.00,397.00 404.75,398.05 407.20,398.40"/>
    </edge>
    <edge id=":n1_9" function="internal">
        <lane id=":n1_9_0" index="0" speed="16.00" length="14.40" shape="401.60,392.80 401.60,407.20"/>
    </edge>
    <edge id=":n1_10" function="internal">
        <lane id=":n1_10_0" index="0" speed="8.00" length="5.93" shape="401.60,392.80 401.05,396.65 400.00,398.40"/>
    </edge>
    <edge id=":n1_11" function="internal">
        <lane id=":n1_11_0" index="0" speed="3.65" length="2.34" shape="401.60,392.80 400.80,394.00 400.00,394.40"/>
    </edge>
    <edge id=":n1_20" function="internal">
        <lane id=":n1_20_0" index="0" speed="8.00" length="8.26" shape="400.00,398.40 399.40,399.40 396.65,401.05 392.80,401.60"/>
    </edge>
    <edge id=":n1_21" function="internal">
        <lane id=":n1_21_0" index="0" speed="3.65" length="2.34" shape="400.00,394.40 399.20,394.00 398.40,392.80"/>
    </edge>
    <edge id=":n1_12" function="internal">
        <lane id=":n1_12_0" index="0" speed="6.51" length="9.03" shape="392.80,398.40 395.25,398.05 397.00,397.00 398.05,395.25 398.40,392.80"/>
    </edge>
    <edge id=":n1_13" function="internal">
        <lane id=":n1_13_0" index="0" speed="16.00" length="14.40" shape="392.80,398.40 407.20,398.40"/>
    </edge>
    <edge id=":n1_14" function="internal">
        <lane id=":n1_14_0" index="0" speed="8.00" length="5.93" shape="392.80,398.40 396.65,398.95 398.40,400.00"/>
    </edge>
    <edge id=":n1_15" function="internal">
        <lane id=":n1_15_0" index="0" speed="3.65" length="2.34" shape="392.80,398.40 394.00,399.20 394.40,400.00"/>
    </edge>
    <edge id=":n1_22" function="internal">
        <lane id=":n1_22_0" index="0" speed="8.00" length="8.26" shape="398.40,400.00 399.40,400.60 401.05,403.35 401.60,407.20"/>
    </edge>
    <edge id=":n1_23" function="internal">
        <lane id=":n1_23_0" index="0" speed="3.65" length="2.34" shape="394.40,400.00 394.00,400.80 392.80,401.60"/>
    </edge>
    <edge id=":n10_0" function="internal">
        <lane id=":n10_0_0" index="0" speed="6.51" length="9.03" shape="798.40,607.20 798.05,604.75 797.00,603.00 795.25,601.95 792.80,601.60"/>
    </edge>
    <edge id=":n10_1" function="internal">
        <lane id=":n10_1_0" index="0" speed="16.00" length="14.40" shape="798.40,607.20 798.40,592.80"/>
    </edge>
    <edge id=":n10_2" function="internal">
        <lane id=":n10_2_0" index="0" speed="8.00" length="5.93" shape="798.40,607.20 798.95,603.35 800.00,601.60"/>
    </edge>
    <edge id=":n10_3" function="internal">
        <lane id=":n10_3_0" index="0" speed="3.65" length="2.34" shape="798.40,607.20 799.20,606.00 800.00,605.60"/>
    </edge>
    <edge id=":n10_16" function="internal">
        <lane id=":n10_16_0" index="0" speed="8.00" length="8.26" shape="800.00,601.60 800.60,600.60 803.35,598.95 807.20,598.40"/>
    </edge>
    <edge id=":n10_17" function="internal">
        <lane id=":n10_17_0" index="0" speed="3.65" length="2.34" shape="800.00,605.60 800.80,606.00 801.60,607.20"/>
    </edge>
    <edge id=":n10_4" function="internal">
        <lane id=":n10_4_0" index="0" speed="6.51" length="9.03" shape="807.20,601.60 804.75,601.95 803.00,603.00 801.95,604.75 801.60,607.20"/>
    </edge>
    <edge id=":n10_5" function="internal">
        <lane id=":n10_5_0" index="0" speed="16.00" length="14.40" shape="807.20,601.60 792.80,601.60"/>
    </edge>
    <edge id=":n10_6" function="internal">
        <lane id=":n10_6_0" index="0" speed="8.00" length="5.93" shape="807.20,601.60 803.35,601.05 801.60,600.00"/>
    </edge>
    <edge id=":n10_7" function="internal">
        <lane id=":n10_7_0" index="0" speed="3.65" length="2.34" shape="807.20,601.60 806.00,600.80 805.60,600.00"/>
    </edge>
    <edge id=":n10_18" function="internal">
        <lane id=":n10_18_0" index="0" speed="8.00" length="8.26" shape="801.60,600.00 800.60,599.40 798.95,596.65 798.40,592.80"/>
    </edge>
    <edge id=":n10_19" function="internal">
        <lane id=":n10_19_0" index="0" speed="3.65" length="2.34" shape="805.60,600.00 806.00,599.20 807.20,598.40"/>
    </edge>
    <edge id=":n10_8" function="internal">
        <lane id=":n10_8_0" index="0" speed="6.51" length="9.03" shape="801.60,592.80 801.95,595.25 803.00,597.00 804.75,598.05 807.20,598.40"/>
    </edge>
    <edge id=":n10_9" function="internal">
        <lane id=":n10_9_0" index="0" speed="16.00" length="14.40" shape="801.60,592.80 801.60,607.20"/>
    </edge>
    <edge id=":n10_10" function="internal">
        <lane id=":n10_10_0" index="0" speed="8.00" length="5.93" shape="801.60,592.80 801.05,596.65 800.00,598.40"/>
    </edge>
    <edge id=":n10_11" function="internal">
        <lane id=":n10_11_0" index="0" speed="3.65" length="2.34" shape="801.60,592.80 800.80,594.00 800.00,594.40"/>
    </edge>
    <edge id=":n10_20" function="internal">
        <lane id=":n10_20_0" index="0" speed="8.00" length="8.26" shape="800.00,598.40 799.40,599.40 796.65,601.05 792.80,601.60"/>
    </edge>
    <edge id=":n10_21" function="internal">
        <lane id=":n10_21_0" index="0" speed="3.65" length="2.34" shape="800.00,594.40 799.20,594.00 798.40,592.80"/>
    </edge>
    <edge id=":n10_12" function="internal">
        <lane id=":n10_12_0" index="0" speed="6.51" length="9.03" shape="792.80,598.40 795.25,598.05 797.00,597.00 798.05,595.25 798.40,592.80"/>
    </edge>
    <edge id=":n10_13" function="internal">
        <lane id=":n10_13_0" index="0" speed="16.00" length="14.40" shape="792.80,598.40 807.20,598.40"/>
    </edge>
    <edge id=":n10_14" function="internal">
        <lane id=":n10_14_0" index="0" speed="8.00" length="5.93" shape="792.80,598.40 796.65,598.95 798.40,600.00"/>
    </edge>
    <edge id=":n10_15" function="internal">
        <lane id=":n10_15_0" index="0" speed="3.65" length="2.34" shape="792.80,598.40 794.00,599.20 794.40,600.00"/>
    </edge>
    <edge id=":n10_22" function="internal">
        <lane id=":n10_22_0" index="0" speed="8.00" length="8.26" shape="798.40,600.00 799.40,600.60 801.05,603.35 801.60,607.20"/>
    </edge>
    <edge id=":n10_23" function="internal">
        <lane id=":n10_23_0" index="0" speed="3.65" length="2.34" shape="794.40,600.00 794.00,600.80 792.80,601.60"/>
    </edge>
    <edge id=":n11_0" function="internal">
        <lane id=":n11_0_0" index="0" speed="6.51" length="9.03" shape="798.40,810.40 798.05,807.95 797.00,806.20 795.25,805.15 792.80,804.80"/>
    </edge>
    <edge id=":n11_1" function="internal">
        <lane id=":n11_1_0" index="0" speed="16.00" length="20.80" shape="798.40,810.40 798.40,789.60"/>
    </edge>
    <edge id=":n11_2" function="internal">
        <lane id=":n11_2_0" index="0" speed="8.67" length="7.89" shape="798.40,810.40 798.95,805.15 800.00,802.76"/>
    </edge>
    <edge id=":n11_3" function="internal">
        <lane id=":n11_3_0" index="0" speed="3.65" length="2.34" shape="798.40,810.40 799.20,809.20 800.00,808.80"/>
    </edge>
    <edge id=":n11_18" function="internal">
        <lane id=":n11_18_0" index="0" speed="8.67" length="8.97" shape="800.00,802.76 800.60,801.40 803.35,799.15 807.20,798.40"/>
    </edge>
    <edge id=":n11_19" function="internal">
        <lane id=":n11_19_0" index="0" speed="3.65" length="2.34" shape="800.00,808.80 800.80,809.20 801.60,810.40"/>
    </edge>
    <edge id=":n11_4" function="internal">
        <lane id=":n11_4_0" index="0" speed="6.51" length="9.03" shape="807.20,804.80 804.75,805.15 803.00,806.20 801.95,807.95 801.60,810.40"/>
    </edge>
    <edge id=":n11_5" function="internal">
        <lane id=":n11_5_0" index="0" speed="16.00" length="14.40" shape="807.20,804.80 792.80,804.80"/>
        <lane id=":n11_5_1" index="1" speed="16.00" length="14.40" shape="807.20,801.60 792.80,801.60"/>
    </edge>
    <edge id=":n11_7" function="internal">
        <lane id=":n11_7_0" index="0" speed="8.67" length="5.26" shape="807.20,801.60 803.35,800.85 802.31,800.00"/>
    </edge>
    <edge id=":n11_8" function="internal">
        <lane id=":n11_8_0" index="0" speed="3.65" length="2.34" shape="807.20,801.60 806.00,800.80 805.60,800.00"/>
    </edge>
    <edge id=":n11_20" function="internal">
        <lane id=":n11_20_0" index="0" speed="8.67" length="11.59" shape="802.31,800.00 800.60,798.60 798.95,794.85 798.40,789.60"/>
    </edge>
    <edge id=":n11_21" function="internal">
        <lane id=":n11_21_0" index="0" speed="3.65" length="2.34" shape="805.60,800.00 806.00,799.20 807.20,798.40"/>
    </edge>
    <edge id=":n11_9" function="internal">
        <lane id=":n11_9_0" index="0" speed="6.51" length="9.03" shape="801.60,789.60 801.95,792.05 803.00,793.80 804.75,794.85 807.20,795.20"/>
    </edge>
    <edge id=":n11_10" function="internal">
        <lane id=":n11_10_0" index="0" speed="16.00" length="20.80" shape="801.60,789.60 801.60,810.40"/>
    </edge>
    <edge id=":n11_11" function="internal">
        <lane id=":n11_11_0" index="0" speed="8.67" length="7.89" shape="801.60,789.60 801.05,794.85 800.00,797.24"/>
    </edge>
    <edge id=":n11_12" function="internal">
        <lane id=":n11_12_0" index="0" speed="3.65" length="2.34" shape="801.60,789.60 800.80,790.80 800.00,791.20"/>
    </edge>
    <edge id=":n11_22" function="internal">
        <lane id=":n11_22_0" index="0" speed="8.67" length="8.97" shape="800.00,797.24 799.40,798.60 796.65,800.85 792.80,801.60"/>
    </edge>
    <edge id=":n11_23" function="internal">
        <lane id=":n11_23_0" index="0" speed="3.65" length="2.34" shape="800.00,791.20 799.20,790.80 798.40,789.60"/>
    </edge>
    <edge id=":n11_13" function="internal">
        <lane id=":n11_13_0" index="0" speed="6.51" length="9.03" shape="792.80,795.20 795.25,794.85 797.00,793.80 798.05,792.05 798.40,789.60"/>
    </edge>
    <edge id=":n11_14" function="internal">
        <lane id=":n11_14_0" index="0" speed="16.00" length="14.40" shape="792.80,795.20 807.20,795.20"/>
        <lane id=":n11_14_1" index="1" speed="16.00" length="14.40" shape="792.80,798.40 807.20,798.40"/>
    </edge>
    <edge id=":n11_16" function="internal">
        <lane id=":n11_16_0" index="0" speed="8.67" length="5.26" shape="792.80,798.40 796.65,799.15 797.69,800.00"/>
    </edge>
    <edge id=":n11_17" function="internal">
        <lane id=":n11_17_0" index="0" speed="3.65" length="2.34" shape="792.80,798.40 794.00,799.20 794.40,800.00"/>
    </edge>
    <edge id=":n11_24" function="internal">
        <lane id=":n11_24_0" index="0" speed="8.67" length="11.59" shape="797.69,800.00 799.40,801.40 801.05,805.15 801.60,810.40"/>
    </edge>
    <edge id=":n11_25" function="internal">
        <lane id=":n11_25_0" index="0" speed="3.65" length="2.34" shape="794.40,800.00 794.00,800.80 792.80,801.60"/>
    </edge>
    <edge id=":n12_0" function="internal">
        <lane id=":n12_0_0" index="0" speed="6.51" length="9.03" shape="798.40,1007.20 798.05,1004.75 797.00,1003.00 795.25,1001.95 792.80,1001.60"/>
    </edge>
    <edge id=":n12_1" function="internal">
        <lane id=":n12_1_0" index="0" speed="16.00" length="14.40" shape="798.40,1007.20 798.40,992.80"/>
    </edge>
    <edge id=":n12_2" function="internal">
        <lane id=":n12_2_0" index="0" speed="8.00" length="5.93" shape="798.40,1007.20 798.95,1003.35 800.00,1001.60"/>
    </edge>
    <edge id=":n12_3" function="internal">
        <lane id=":n12_3_0" index="0" speed="3.65" length="2.34" shape="798.40,1007.20 799.20,1006.00 800.00,1005.60"/>
    </edge>
    <edge id=":n12_16" function="internal">
        <lane id=":n12_16_0" index="0" speed="8.00" length="8.26" shape="800.00,1001.60 800.60,1000.60 803.35,998.95 807.20,998.40"/>
    </edge>
    <edge id=":n12_17" function="internal">
        <lane id=":n12_17_0" index="0" speed="3.65" length="2.34" shape="800.00,1005.60 800.80,1006.00 801.60,1007.20"/>
    </edge>
    <edge id=":n12_4" function="internal">
        <lane id=":n12_4_0" index="0" speed="6.51" length="9.03" shape="807.20,1001.60 804.75,1001.95 803.00,1003.00 801.95,1004.75 801.60,1007.20"/>
    </edge>
    <edge id=":n12_5" function="internal">
        <lane id=":n12_5_0" index="0" speed="16.00" length="14.40" shape="807.20,1001.60 792.80,1001.60"/>
    </edge>
    <edge id=":n12_6" function="internal">
        <lane id=":n12_6_0" index="0" speed="8.00" length="5.93" shape="807.20,1001.60 803.35,1001.05 801.60,1000.00"/>
    </edge>
    <edge id=":n12_7" function="internal">
        <lane id=":n12_7_0" index="0" speed="3.65" length="2.34" shape="807.20,1001.60 806.00,1000.80 805.60,1000.00"/>
    </edge>
    <edge id=":n12_18" function="internal">
        <lane id=":n12_18_0" index="0" speed="8.00" length="8.26" shape="801.60,1000.00 800.60,999.40 798.95,996.65 798.40,992.80"/>
    </edge>
    <edge id=":n12_19" function="internal">
        <lane id=":n12_19_0" index="0" speed="3.65" length="2.34" shape="805.60,1000.00 806.00,999.20 807.20,998.40"/>
    </edge>
    <edge id=":n12_8" function="internal">
        <lane id=":n12_8_0" index="0" speed="6.51" length="9.03" shape="801.60,992.80 801.95,995.25 803.00,997.00 804.75,998.05 807.20,998.40"/>
    </edge>
    <edge id=":n12_9" function="internal">
        <lane id=":n12_9_0" index="0" speed="16.00" length="14.40" shape="801.60,992.80 801.60,1007.20"/>
    </edge>
    <edge id=":n12_10" function="internal">
        <lane id=":n12_10_0" index="0" speed="8.00" length="5.93" shape="801.60,992.80 801.05,996.65 800.00,998.40"/>
    </edge>
    <edge id=":n12_11" function="internal">
        <lane id=":n12_11_0" index="0" speed="3.65" length="2.34" shape="801.60,992.80 800.80,994.00 800.00,994.40"/>
    </edge>
    <edge id=":n12_20" function="internal">
        <lane id=":n12_20_0" index="0" speed="8.00" length="8.26" shape="800.00,998.40 799.40,999.40 796.65,1001.05 792.80,1001.60"/>
    </edge>
    <edge id=":n12_21" function="internal">
        <lane id=":n12_21_0" index="0" speed="3.65" length="2.34" shape="800.00,994.40 799.20,994.00 798.40,992.80"/>
    </edge>
    <edge id=":n12_12" function="internal">
        <lane id=":n12_12_0" index="0" speed="6.51" length="9.03" shape="792.80,998.40 795.25,998.05 797.00,997.00 798.05,995.25 798.40,992.80"/>
    </edge>
    <edge id=":n12_13" function="internal">
        <lane id=":n12_13_0" index="0" speed="16.00" length="14.40" shape="792.80,998.40 807.20,998.40"/>
    </edge>
    <edge id=":n12_14" function="internal">
        <lane id=":n12_14_0" index="0" speed="8.00" length="5.93" shape="792.80,998.40 796.65,998.95 798.40,1000.00"/>
    </edge>
    <edge id=":n12_15" function="internal">
        <lane id=":n12_15_0" index="0" speed="3.65" length="2.34" shape="792.80,998.40 794.00,999.20 794.40,1000.00"/>
    </edge>
    <edge id=":n12_22" function="internal">
        <lane id=":n12_22_0" index="0" speed="8.00" length="8.26" shape="798.40,1000.00 799.40,1000.60 801.05,1003.35 801.60,1007.20"/>
    </edge>
    <edge id=":n12_23" function="internal">
        <lane id=":n12_23_0" index="0" speed="3.65" length="2.34" shape="794.40,1000.00 794.00,1000.80 792.80,1001.60"/>
    </edge>
    <edge id=":n13_0" function="internal">
        <lane id=":n13_0_0" index="0" speed="6.51" length="9.03" shape="995.20,407.20 994.85,404.75 993.80,403.00 992.05,401.95 989.60,401.60"/>
    </edge>
    <edge id=":n13_1" function="internal">
        <lane id=":n13_1_0" index="0" speed="16.00" length="14.40" shape="995.20,407.20 995.20,392.80"/>
        <lane id=":n13_1_1" index="1" speed="16.00" length="14.40" shape="998.40,407.20 998.40,392.80"/>
    </edge>
    <edge id=":n13_3" function="internal">
        <lane id=":n13_3_0" index="0" speed="8.67" length="5.26" shape="998.40,407.20 999.15,403.35 1000.00,402.31"/>
    </edge>
    <edge id=":n13_4" function="internal">
        <lane id=":n13_4_0" index="0" speed="3.65" length="2.34" shape="998.40,407.20 999.20,406.00 1000.00,405.60"/>
    </edge>
    <edge id=":n13_18" function="internal">
        <lane id=":n13_18_0" index="0" speed="8.67" length="11.59" shape="1000.00,402.31 1001.40,400.60 1005.15,398.95 1010.40,398.40"/>
    </edge>
    <edge id=":n13_19" function="internal">
        <lane id=":n13_19_0" index="0" speed="3.65" length="2.34" shape="1000.00,405.60 1000.80,406.00 1001.60,407.20"/>
    </edge>
    <edge id=":n13_5" function="internal">
        <lane id=":n13_5_0" index="0" speed="6.51" length="9.03" shape="1010.40,401.60 1007.95,401.95 1006.20,403.00 1005.15,404.75 1004.80,407.20"/>
    </edge>
    <edge id=":n13_6" function="internal">
        <lane id=":n13_6_0" index="0" speed="16.00" length="20.80" shape="1010.40,401.60 989.60,401.60"/>
    </edge>
    <edge id=":n13_7" function="internal">
        <lane id=":n13_7_0" index="0" speed="8.67" length="7.89" shape="1010.40,401.60 1005.15,401.05 1002.76,400.00"/>
    </edge>
    <edge id=":n13_8" function="internal">
        <lane id=":n13_8_0" index="0" speed="3.65" length="2.34" shape="1010.40,401.60 1009.20,400.80 1008.80,400.00"/>
    </edge>
    <edge id=":n13_20" function="internal">
        <lane id=":n13_20_0" index="0" speed="8.67" length="8.97" shape="1002.76,400.00 1001.40,399.40 999.15,396.65 998.40,392.80"/>
    </edge>
    <edge id=":n13_21" function="internal">
        <lane id=":n13_21_0" index="0" speed="3.65" length="2.34" shape="1008.80,400.00 1009.20,399.20 1010.40,398.40"/>
    </edge>
    <edge id=":n13_9" function="internal">
        <lane id=":n13_9_0" index="0" speed="6.51" length="9.03" shape="1004.80,392.80 1005.15,395.25 1006.20,397.00 1007.95,398.05 1010.40,398.40"/>
    </edge>
    <edge id=":n13_10" function="internal">
        <lane id=":n13_10_0" index="0" speed="16.00" length="14.40" shape="1004.80,392.80 1004.80,407.20"/>
        <lane id=":n13_10_1" index="1" speed="16.00" length="14.40" shape="1001.60,392.80 1001.60,407.20"/>
    </edge>
    <edge id=":n13_12" function="internal">
        <lane id=":n13_12_0" index="0" speed="8.67" length="5.26" shape="1001.60,392.80 1000.85,396.65 1000.00,397.69"/>
    </edge>
    <edge id=":n13_13" function="internal">
        <lane id=":n13_13_0" index="0" speed="3.65" length="2.34" shape="1001.60,392.80 1000.80,394.00 1000.00,394.40"/>
    </edge>
    <edge id=":n13_22" function="internal">
        <lane id=":n13_22_0" index="0" speed="8.67" length="11.59" shape="1000.00,397.69 998.60,399.40 994.85,401.05 989.60,401.60"/>
    </edge>
    <edge id=":n13_23" function="internal">
        <lane id=":n13_23_0" index="0" speed="3.65" length="2.34" shape="1000.00,394.40 999.20,394.00 998.40,392.80"/>
    </edge>
    <edge id=":n13_14" function="internal">
        <lane id=":n13_14_0" index="0" speed="6.51" length="9.03" shape="989.60,398.40 992.05,398.05 993.80,397.00 994.85,395.25 995.20,392.80"/>
    </edge>
    <edge id=":n13_15" function="internal">
        <lane id=":n13_15_0" index="0" speed="16.00" length="20.80" shape="989.60,398.40 1010.40,398.40"/>
    </edge>
    <edge id=":n13_16" function="internal">
        <lane id=":n13_16_0" index="0" speed="8.67" length="7.89" shape="989.60,398.40 994.85,398.95 997.24,400.00"/>
    </edge>
    <edge id=":n13_17" function="internal">
        <lane id=":n13_17_0" index="0" speed="3.65" length="2.34" shape="989.60,398.40 990.80,399.20 991.20,400.00"/>
    </edge>
    <edge id=":n13_24" function="internal">
        <lane id=":n13_24_0" index="0" speed="8.67" length="8.97" shape="997.24,400.00 998.60,400.60 1000.85,403.35 1001.60,407.20"/>
    </edge>
    <edge id=":n13_25" function="internal">
        <lane id=":n13_25_0" index="0" speed="3.65" length="2.34" shape="991.20,400.00 990.80,400.80 989.60,401.60"/>
    </edge>
    <edge id=":n14_0" function="internal">
        <lane id=":n14_0_0" index="0" speed="6.51" length="9.03" shape="995.20,607.20 994.85,604.75 993.80,603.00 992.05,601.95 989.60,601.60"/>
    </edge>
    <edge id=":n14_1" function="internal">
        <lane id=":n14_1_0" index="0" speed="16.00" length="14.40" shape="995.20,607.20 995.20,592.80"/>
        <lane id=":n14_1_1" index="1" speed="16.00" length="14.40" shape="998.40,607.20 998.40,592.80"/>
    </edge>
    <edge id=":n14_3" function="internal">
        <lane id=":n14_3_0" index="0" speed="8.67" length="5.26" shape="998.40,607.20 999.15,603.35 1000.00,602.31"/>
    </edge>
    <edge id=":n14_4" function="internal">
        <lane id=":n14_4_0" index="0" speed="3.65" length="2.34" shape="998.40,607.20 999.20,606.00 1000.00,605.60"/>
    </edge>
    <edge id=":n14_18" function="internal">
        <lane id=":n14_18_0" index="0" speed="8.67" length="11.59" shape="1000.00,602.31 1001.40,600.60 1005.15,598.95 1010.40,598.40"/>
    </edge>
    <edge id=":n14_19" function="internal">
        <lane id=":n14_19_0" index="0" speed="3.65" length="2.34" shape="1000.00,605.60 1000.80,606.00 1001.60,607.20"/>
    </edge>
    <edge id=":n14_5" function="internal">
        <lane id=":n14_5_0" index="0" speed="6.51" length="9.03" shape="1010.40,601.60 1007.95,601.95 1006.20,603.00 1005.15,604.75 1004.80,607.20"/>
    </edge>
    <edge id=":n14_6" function="internal">
        <lane id=":n14_6_0" index="0" speed="16.00" length="20.80" shape="1010.40,601.60 989.60,601.60"/>
    </edge>
    <edge id=":n14_7" function="internal">
        <lane id=":n14_7_0" index="0" speed="8.67" length="7.89" shape="1010.40,601.60 1005.15,601.05 1002.76,600.00"/>
    </edge>
    <edge id=":n14_8" function="internal">
        <lane id=":n14_8_0" index="0" speed="3.65" length="2.34" shape="1010.40,601.60 1009.20,600.80 1008.80,600.00"/>
    </edge>
    <edge id=":n14_20" function="internal">
        <lane id=":n14_20_0" index="0" speed="8.67" length="8.97" shape="1002.76,600.00 1001.40,599.40 999.15,596.65 998.40,592.80"/>
    </edge>
    <edge id=":n14_21" function="internal">
        <lane id=":n14_21_0" index="0" speed="3.65" length="2.34" shape="1008.80,600.00 1009.20,599.20 1010.40,598.40"/>
    </edge>
    <edge id=":n14_9" function="internal">
        <lane id=":n14_9_0" index="0" speed="6.51" length="9.03" shape="1004.80,592.80 1005.15,595.25 1006.20,597.00 1007.95,598.05 1010.40,598.40"/>
    </edge>
    <edge id=":n14_10" function="internal">
        <lane id=":n14_10_0" index="0" speed="16.00" length="14.40" shape="1004.80,592.80 1004.80,607.20"/>
        <lane id=":n14_10_1" index="1" speed="16.00" length="14.40" shape="1001.60,592.80 1001.60,607.20"/>
    </edge>
    <edge id=":n14_12" function="internal">
        <lane id=":n14_12_0" index="0" speed="8.67" length="5.26" shape="1001.60,592.80 1000.85,596.65 1000.00,597.69"/>
    </edge>
    <edge id=":n14_13" function="internal">
        <lane id=":n14_13_0" index="0" speed="3.65" length="2.34" shape="1001.60,592.80 1000.80,594.00 1000.00,594.40"/>
    </edge>
    <edge id=":n14_22" function="internal">
        <lane id=":n14_22_0" index="0" speed="8.67" length="11.59" shape="1000.00,597.69 998.60,599.40 994.85,601.05 989.60,601.60"/>
    </edge>
    <edge id=":n14_23" function="internal">
        <lane id=":n14_23_0" index="0" speed="3.65" length="2.34" shape="1000.00,594.40 999.20,594.00 998.40,592.80"/>
    </edge>
    <edge id=":n14_14" function="internal">
        <lane id=":n14_14_0" index="0" speed="6.51" length="9.03" shape="989.60,598.40 992.05,598.05 993.80,597.00 994.85,595.25 995.20,592.80"/>
    </edge>
    <edge id=":n14_15" function="internal">
        <lane id=":n14_15_0" index="0" speed="16.00" length="20.80" shape="989.60,598.40 1010.40,598.40"/>
    </edge>
    <edge id=":n14_16" function="internal">
        <lane id=":n14_16_0" index="0" speed="8.67" length="7.89" shape="989.60,598.40 994.85,598.95 997.24,600.00"/>
    </edge>
    <edge id=":n14_17" function="internal">
        <lane id=":n14_17_0" index="0" speed="3.65" length="2.34" shape="989.60,598.40 990.80,599.20 991.20,600.00"/>
    </edge>
    <edge id=":n14_24" function="internal">
        <lane id=":n14_24_0" index="0" speed="8.67" length="8.97" shape="997.24,600.00 998.60,600.60 1000.85,603.35 1001.60,607.20"/>
    </edge>
    <edge id=":n14_25" function="internal">
        <lane id=":n14_25_0" index="0" speed="3.65" length="2.34" shape="991.20,600.00 990.80,600.80 989.60,601.60"/>
    </edge>
    <edge id=":n15_0" function="internal">
        <lane id=":n15_0_0" index="0" speed="8.10" length="14.57" shape="988.80,816.80 988.45,811.55 987.40,807.80 985.65,805.55 983.20,804.80"/>
    </edge>
    <edge id=":n15_1" function="internal">
        <lane id=":n15_1_0" index="0" speed="16.00" length="33.78" shape="992.00,816.80 992.50,805.84 993.60,797.42 994.70,790.30 995.20,783.20"/>
        <lane id=":n15_1_1" index="1" speed="16.00" length="33.78" shape="995.20,816.80 995.70,805.84 996.80,797.42 997.90,790.30 998.40,783.20"/>
    </edge>
    <edge id=":n15_3" function="internal">
        <lane id=":n15_3_0" index="0" speed="11.36" length="10.95" shape="998.40,816.80 999.55,808.75 1001.00,806.33"/>
    </edge>
    <edge id=":n15_16" function="internal">
        <lane id=":n15_16_0" index="0" speed="11.36" length="18.72" shape="1001.00,806.33 1003.00,803.00 1008.75,799.55 1016.80,798.40"/>
    </edge>
    <edge id=":n15_4" function="internal">
        <lane id=":n15_4_0" index="0" speed="8.10" length="14.57" shape="1016.80,811.20 1011.55,811.55 1007.80,812.60 1005.55,814.35 1004.80,816.80"/>
    </edge>
    <edge id=":n15_5" function="internal">
        <lane id=":n15_5_0" index="0" speed="16.00" length="33.78" shape="1016.80,808.00 1005.84,807.50 997.42,806.40 990.30,805.30 983.20,804.80"/>
        <lane id=":n15_5_1" index="1" speed="16.00" length="33.78" shape="1016.80,804.80 1005.84,804.30 997.42,803.20 990.30,802.10 983.20,801.60"/>
    </edge>
    <edge id=":n15_7" function="internal">
        <lane id=":n15_7_0" index="0" speed="11.36" length="10.95" shape="1016.80,801.60 1008.75,800.45 1006.33,799.00"/>
    </edge>
    <edge id=":n15_17" function="internal">
        <lane id=":n15_17_0" index="0" speed="11.36" length="18.72" shape="1006.33,799.00 1003.00,797.00 999.55,791.25 998.40,783.20"/>
    </edge>
    <edge id=":n15_8" function="internal">
        <lane id=":n15_8_0" index="0" speed="8.10" length="14.57" shape="1011.20,783.20 1011.55,788.45 1012.60,792.20 1014.35,794.45 1016.80,795.20"/>