<nodes>
    <!--Intersection nodes-->
    <node id="n1" x="400" y="400" type="traffic_light"/>
    <node id="n2" x="400" y="600" type="traffic_light"/>
    <node id="n3" x="400" y="800" type="traffic_light"/>
    <node id="n4" x="400" y="1000" type="traffic_light"/>
    <node id="n5" x="600" y="400" type="traffic_light"/> 
    <node id="n6" x="600" y="600" type="traffic_light"/>
    <node id="n7" x="600" y="800" type="traffic_light"/>
    <node id="n8" x="600" y="1000" type="traffic_light"/>
    <node id="n9" x="800" y="400" type="traffic_light"/>
    <node id="n10" x="800" y="600" type="traffic_light"/>
    <node id="n11" x="800" y="800" type="traffic_light"/>
    <node id="n12" x="800" y="1000" type="traffic_light"/>
    <node id="n13" x="1000" y="400" type="traffic_light"/>
    <node id="n14" x="1000" y="600" type="traffic_light"/>
    <node id="n15" x="1000" y="800" type="traffic_light"/>
    <node id="n16" x="1000" y="1000" type="traffic_light"/>
    <node id="n22" x="400" y="1200" type="traffic_light"/>
    <node id="n24" x="600" y="1200" type="traffic_light"/>
    <node id="n26" x="800" y="1200" type="traffic_light"/>
    <node id="n28" x="1000" y="1200" type="traffic_light"/>
    <node id="n29" x="1200" y="400" type="traffic_light"/>
    <node id="n30" x="1200" y="600" type="traffic_light"/>
    <node id="n31" x="1200" y="800" type="traffic_light"/>
    <node id="n32" x="1200" y="1000" type="traffic_light"/>
    <node id="n33" x="1200" y="1200" type="traffic_light"/>
    <!--Intersection leadup nodes-->
    <node id="n46" x="900" y="800" type="unregulated"/>
    <node id="n47" x="1000" y="900" type="unregulated"/>
    <node id="n48" x="1100" y="800" type="unregulated"/>
    <node id="n49" x="1000" y="700" type="unregulated"/>
    <node id="n50" x="1000" y="500" type="unregulated"/>
    <node id="n51" x="1000" y="300" type="unregulated"/>
    <node id="n52" x="1000" y="1100" type="unregulated"/>
    <node id="n53" x="1000" y="1300" type="unregulated"/>
    <node id="n54" x="300" y="800" type="unregulated"/>
    <node id="n55" x="500" y="800" type="unregulated"/>
    <node id="n56" x="700" y="800" type="unregulated"/>
    <node id="n57" x="1300" y="800" type="unregulated"/>

    <!--Entry nodes-->
    <node id="n17" x="0" y="400" type="unregulated"/>
    <node id="n18" x="0" y="600" type="unregulated"/>
    <node id="n19" x="0" y="800" type="unregulated"/>
    <node id="n20" x="0" y="1000" type="unregulated"/>
    <node id="n21" x="400" y="0" type="unregulated"/>    
    <node id="n23" x="600" y="0" type="unregulated"/>    
    <node id="n25" x="800" y="0" type="unregulated"/>    
    <node id="n27" x="1000" y="0" type="unregulated"/>
    <node id="n34" x="0" y="1200" type="unregulated"/>
    <node id="n35" x="400" y="1600" type="unregulated"/>
    <node id="n36" x="600" y="1600" type="unregulated"/>
    <node id="n37" x="800" y="1600" type="unregulated"/>
    <node id="n38" x="1000" y="1600" type="unregulated"/>
    <node id="n39" x="1200" y="1600" type="unregulated"/>
    <node id="n40" x="1200" y="0" type="unregulated"/>
    <node id="n41" x="1600" y="400" type="unregulated"/>
    <node id="n42" x="1600" y="600" type="unregulated"/>
    <node id="n43" x="1600" y="800" type="unregulated"/>
    <node id="n44" x="1600" y="1000" type="unregulated"/>
    <node id="n45" x="1600" y="1200" type="unregulated"/>

</nodes>