<?xml version="1.0" encoding="UTF-8"?>

<!-- generated on 09/12/19 11:09:52 by Eclipse SUMO netedit Version 1.1.0
<configuration xmlns:xsi="http://www.w3.org/2001/XMLSchema-instance" xsi:noNamespaceSchemaLocation="http://sumo.dlr.de/xsd/netconvertConfiguration.xsd">

    <input>
        <sumo-net-file value="C:\Users\Alexander%20Bilgram\Desktop\AAUP7\SUMOfiles\NetFile.net.xml"/>
    </input>

    <output>
        <output-file value="C:\Users\Alexander%20Bilgram\Desktop\AAUP7\SUMOfiles\NetFile.net.xml"/>
    </output>

    <processing>
        <geometry.max-grade.fix value="false"/>
        <offset.disable-normalization value="true"/>
        <lefthand value="false"/>
    </processing>

    <junctions>
        <no-turnarounds value="true"/>
        <junctions.corner-detail value="5"/>
        <junctions.limit-turn-speed value="5.5"/>
        <rectangular-lane-cut value="false"/>
    </junctions>

    <pedestrian>
        <walkingareas value="false"/>
    </pedestrian>

</configuration>
-->

<net version="1.1" junctionCornerDetail="5" limitTurnSpeed="5.50" xmlns:xsi="http://www.w3.org/2001/XMLSchema-instance" xsi:noNamespaceSchemaLocation="http://sumo.dlr.de/xsd/net_file.xsd">

    <location netOffset="0.00,0.00" convBoundary="0.00,0.00,2500.00,2500.00" origBoundary="0.00,0.00,2500.00,2500.00" projParameter="!"/>

    <type id="standardroad" priority="1" numLanes="2" speed="16.00"/>

    <edge id=":n1_0" function="internal">
        <lane id=":n1_0_0" index="0" speed="6.51" length="9.03" shape="495.20,510.40 494.85,507.95 493.80,506.20 492.05,505.15 489.60,504.80"/>
    </edge>
    <edge id=":n1_1" function="internal">
        <lane id=":n1_1_0" index="0" speed="16.00" length="20.80" shape="495.20,510.40 495.20,489.60"/>
        <lane id=":n1_1_1" index="1" speed="16.00" length="20.80" shape="498.40,510.40 498.40,489.60"/>
    </edge>
    <edge id=":n1_3" function="internal">
        <lane id=":n1_3_0" index="0" speed="9.26" length="6.96" shape="498.40,510.40 499.15,505.15 500.00,503.73"/>
    </edge>
    <edge id=":n1_4" function="internal">
        <lane id=":n1_4_0" index="0" speed="3.65" length="2.34" shape="498.40,510.40 499.20,509.20 500.00,508.80"/>
    </edge>
    <edge id=":n1_20" function="internal">
        <lane id=":n1_20_0" index="0" speed="9.26" length="12.40" shape="500.00,503.73 501.40,501.40 505.15,499.15 510.40,498.40"/>
    </edge>
    <edge id=":n1_21" function="internal">
        <lane id=":n1_21_0" index="0" speed="3.65" length="2.34" shape="500.00,508.80 500.80,509.20 501.60,510.40"/>
    </edge>
    <edge id=":n1_5" function="internal">
        <lane id=":n1_5_0" index="0" speed="6.51" length="9.03" shape="510.40,504.80 507.95,505.15 506.20,506.20 505.15,507.95 504.80,510.40"/>
    </edge>
    <edge id=":n1_6" function="internal">
        <lane id=":n1_6_0" index="0" speed="16.00" length="20.80" shape="510.40,504.80 489.60,504.80"/>
        <lane id=":n1_6_1" index="1" speed="16.00" length="20.80" shape="510.40,501.60 489.60,501.60"/>
    </edge>
    <edge id=":n1_8" function="internal">
        <lane id=":n1_8_0" index="0" speed="9.26" length="6.96" shape="510.40,501.60 505.15,500.85 503.73,500.00"/>
    </edge>
    <edge id=":n1_9" function="internal">
        <lane id=":n1_9_0" index="0" speed="3.65" length="2.34" shape="510.40,501.60 509.20,500.80 508.80,500.00"/>
    </edge>
    <edge id=":n1_22" function="internal">
        <lane id=":n1_22_0" index="0" speed="9.26" length="12.40" shape="503.73,500.00 501.40,498.60 499.15,494.85 498.40,489.60"/>
    </edge>
    <edge id=":n1_23" function="internal">
        <lane id=":n1_23_0" index="0" speed="3.65" length="2.34" shape="508.80,500.00 509.20,499.20 510.40,498.40"/>
    </edge>
    <edge id=":n1_10" function="internal">
        <lane id=":n1_10_0" index="0" speed="6.51" length="9.03" shape="504.80,489.60 505.15,492.05 506.20,493.80 507.95,494.85 510.40,495.20"/>
    </edge>
    <edge id=":n1_11" function="internal">
        <lane id=":n1_11_0" index="0" speed="16.00" length="20.80" shape="504.80,489.60 504.80,510.40"/>
        <lane id=":n1_11_1" index="1" speed="16.00" length="20.80" shape="501.60,489.60 501.60,510.40"/>
    </edge>
    <edge id=":n1_13" function="internal">
        <lane id=":n1_13_0" index="0" speed="9.26" length="6.96" shape="501.60,489.60 500.85,494.85 500.00,496.27"/>
    </edge>
    <edge id=":n1_14" function="internal">
        <lane id=":n1_14_0" index="0" speed="3.65" length="2.34" shape="501.60,489.60 500.80,490.80 500.00,491.20"/>
    </edge>
    <edge id=":n1_24" function="internal">
        <lane id=":n1_24_0" index="0" speed="9.26" length="12.40" shape="500.00,496.27 498.60,498.60 494.85,500.85 489.60,501.60"/>
    </edge>
    <edge id=":n1_25" function="internal">
        <lane id=":n1_25_0" index="0" speed="3.65" length="2.34" shape="500.00,491.20 499.20,490.80 498.40,489.60"/>
    </edge>
    <edge id=":n1_15" function="internal">
        <lane id=":n1_15_0" index="0" speed="6.51" length="9.03" shape="489.60,495.20 492.05,494.85 493.80,493.80 494.85,492.05 495.20,489.60"/>
    </edge>
    <edge id=":n1_16" function="internal">
        <lane id=":n1_16_0" index="0" speed="16.00" length="20.80" shape="489.60,495.20 510.40,495.20"/>
        <lane id=":n1_16_1" index="1" speed="16.00" length="20.80" shape="489.60,498.40 510.40,498.40"/>
    </edge>
    <edge id=":n1_18" function="internal">
        <lane id=":n1_18_0" index="0" speed="9.26" length="6.96" shape="489.60,498.40 494.85,499.15 496.27,500.00"/>
    </edge>
    <edge id=":n1_19" function="internal">
        <lane id=":n1_19_0" index="0" speed="3.65" length="2.34" shape="489.60,498.40 490.80,499.20 491.20,500.00"/>
    </edge>
    <edge id=":n1_26" function="internal">
        <lane id=":n1_26_0" index="0" speed="9.26" length="12.40" shape="496.27,500.00 498.60,501.40 500.85,505.15 501.60,510.40"/>
    </edge>
    <edge id=":n1_27" function="internal">
        <lane id=":n1_27_0" index="0" speed="3.65" length="2.34" shape="491.20,500.00 490.80,500.80 489.60,501.60"/>
    </edge>
    <edge id=":n10_0" function="internal">
        <lane id=":n10_0_0" index="0" speed="6.51" length="9.03" shape="1495.20,1010.40 1494.85,1007.95 1493.80,1006.20 1492.05,1005.15 1489.60,1004.80"/>
    </edge>
    <edge id=":n10_1" function="internal">
        <lane id=":n10_1_0" index="0" speed="16.00" length="20.80" shape="1495.20,1010.40 1495.20,989.60"/>
        <lane id=":n10_1_1" index="1" speed="16.00" length="20.80" shape="1498.40,1010.40 1498.40,989.60"/>
    </edge>
    <edge id=":n10_3" function="internal">
        <lane id=":n10_3_0" index="0" speed="9.26" length="6.96" shape="1498.40,1010.40 1499.15,1005.15 1500.00,1003.73"/>
    </edge>
    <edge id=":n10_4" function="internal">
        <lane id=":n10_4_0" index="0" speed="3.65" length="2.34" shape="1498.40,1010.40 1499.20,1009.20 1500.00,1008.80"/>
    </edge>
    <edge id=":n10_20" function="internal">
        <lane id=":n10_20_0" index="0" speed="9.26" length="12.40" shape="1500.00,1003.73 1501.40,1001.40 1505.15,999.15 1510.40,998.40"/>
    </edge>
    <edge id=":n10_21" function="internal">
        <lane id=":n10_21_0" index="0" speed="3.65" length="2.34" shape="1500.00,1008.80 1500.80,1009.20 1501.60,1010.40"/>
    </edge>
    <edge id=":n10_5" function="internal">
        <lane id=":n10_5_0" index="0" speed="6.51" length="9.03" shape="1510.40,1004.80 1507.95,1005.15 1506.20,1006.20 1505.15,1007.95 1504.80,1010.40"/>
    </edge>
    <edge id=":n10_6" function="internal">
        <lane id=":n10_6_0" index="0" speed="16.00" length="20.80" shape="1510.40,1004.80 1489.60,1004.80"/>
        <lane id=":n10_6_1" index="1" speed="16.00" length="20.80" shape="1510.40,1001.60 1489.60,1001.60"/>
    </edge>
    <edge id=":n10_8" function="internal">
        <lane id=":n10_8_0" index="0" speed="9.26" length="6.96" shape="1510.40,1001.60 1505.15,1000.85 1503.73,1000.00"/>
    </edge>
    <edge id=":n10_9" function="internal">
        <lane id=":n10_9_0" index="0" speed="3.65" length="2.34" shape="1510.40,1001.60 1509.20,1000.80 1508.80,1000.00"/>
    </edge>
    <edge id=":n10_22" function="internal">
        <lane id=":n10_22_0" index="0" speed="9.26" length="12.40" shape="1503.73,1000.00 1501.40,998.60 1499.15,994.85 1498.40,989.60"/>
    </edge>
    <edge id=":n10_23" function="internal">
        <lane id=":n10_23_0" index="0" speed="3.65" length="2.34" shape="1508.80,1000.00 1509.20,999.20 1510.40,998.40"/>
    </edge>
    <edge id=":n10_10" function="internal">
        <lane id=":n10_10_0" index="0" speed="6.51" length="9.03" shape="1504.80,989.60 1505.15,992.05 1506.20,993.80 1507.95,994.85 1510.40,995.20"/>
    </edge>
    <edge id=":n10_11" function="internal">
        <lane id=":n10_11_0" index="0" speed="16.00" length="20.80" shape="1504.80,989.60 1504.80,1010.40"/>
        <lane id=":n10_11_1" index="1" speed="16.00" length="20.80" shape="1501.60,989.60 1501.60,1010.40"/>
    </edge>
    <edge id=":n10_13" function="internal">
        <lane id=":n10_13_0" index="0" speed="9.26" length="6.96" shape="1501.60,989.60 1500.85,994.85 1500.00,996.27"/>
    </edge>
    <edge id=":n10_14" function="internal">
        <lane id=":n10_14_0" index="0" speed="3.65" length="2.34" shape="1501.60,989.60 1500.80,990.80 1500.00,991.20"/>
    </edge>
    <edge id=":n10_24" function="internal">
        <lane id=":n10_24_0" index="0" speed="9.26" length="12.40" shape="1500.00,996.27 1498.60,998.60 1494.85,1000.85 1489.60,1001.60"/>
    </edge>
    <edge id=":n10_25" function="internal">
        <lane id=":n10_25_0" index="0" speed="3.65" length="2.34" shape="1500.00,991.20 1499.20,990.80 1498.40,989.60"/>
    </edge>
    <edge id=":n10_15" function="internal">
        <lane id=":n10_15_0" index="0" speed="6.51" length="9.03" shape="1489.60,995.20 1492.05,994.85 1493.80,993.80 1494.85,992.05 1495.20,989.60"/>
    </edge>
    <edge id=":n10_16" function="internal">
        <lane id=":n10_16_0" index="0" speed="16.00" length="20.80" shape="1489.60,995.20 1510.40,995.20"/>
        <lane id=":n10_16_1" index="1" speed="16.00" length="20.80" shape="1489.60,998.40 1510.40,998.40"/>
    </edge>
    <edge id=":n10_18" function="internal">
        <lane id=":n10_18_0" index="0" speed="9.26" length="6.96" shape="1489.60,998.40 1494.85,999.15 1496.27,1000.00"/>
    </edge>
    <edge id=":n10_19" function="internal">
        <lane id=":n10_19_0" index="0" speed="3.65" length="2.34" shape="1489.60,998.40 1490.80,999.20 1491.20,1000.00"/>
    </edge>
    <edge id=":n10_26" function="internal">
        <lane id=":n10_26_0" index="0" speed="9.26" length="12.40" shape="1496.27,1000.00 1498.60,1001.40 1500.85,1005.15 1501.60,1010.40"/>
    </edge>
    <edge id=":n10_27" function="internal">
        <lane id=":n10_27_0" index="0" speed="3.65" length="2.34" shape="1491.20,1000.00 1490.80,1000.80 1489.60,1001.60"/>
    </edge>
    <edge id=":n11_0" function="internal">
        <lane id=":n11_0_0" index="0" speed="6.51" length="9.03" shape="1495.20,1510.40 1494.85,1507.95 1493.80,1506.20 1492.05,1505.15 1489.60,1504.80"/>
    </edge>
    <edge id=":n11_1" function="internal">
        <lane id=":n11_1_0" index="0" speed="16.00" length="20.80" shape="1495.20,1510.40 1495.20,1489.60"/>
        <lane id=":n11_1_1" index="1" speed="16.00" length="20.80" shape="1498.40,1510.40 1498.40,1489.60"/>
    </edge>
    <edge id=":n11_3" function="internal">
        <lane id=":n11_3_0" index="0" speed="9.26" length="6.96" shape="1498.40,1510.40 1499.15,1505.15 1500.00,1503.73"/>
    </edge>
    <edge id=":n11_4" function="internal">
        <lane id=":n11_4_0" index="0" speed="3.65" length="2.34" shape="1498.40,1510.40 1499.20,1509.20 1500.00,1508.80"/>
    </edge>
    <edge id=":n11_20" function="internal">
        <lane id=":n11_20_0" index="0" speed="9.26" length="12.40" shape="1500.00,1503.73 1501.40,1501.40 1505.15,1499.15 1510.40,1498.40"/>
    </edge>
    <edge id=":n11_21" function="internal">
        <lane id=":n11_21_0" index="0" speed="3.65" length="2.34" shape="1500.00,1508.80 1500.80,1509.20 1501.60,1510.40"/>
    </edge>
    <edge id=":n11_5" function="internal">
        <lane id=":n11_5_0" index="0" speed="6.51" length="9.03" shape="1510.40,1504.80 1507.95,1505.15 1506.20,1506.20 1505.15,1507.95 1504.80,1510.40"/>
    </edge>
    <edge id=":n11_6" function="internal">
        <lane id=":n11_6_0" index="0" speed="16.00" length="20.80" shape="1510.40,1504.80 1489.60,1504.80"/>
        <lane id=":n11_6_1" index="1" speed="16.00" length="20.80" shape="1510.40,1501.60 1489.60,1501.60"/>
    </edge>
    <edge id=":n11_8" function="internal">
        <lane id=":n11_8_0" index="0" speed="9.26" length="6.96" shape="1510.40,1501.60 1505.15,1500.85 1503.73,1500.00"/>
    </edge>
    <edge id=":n11_9" function="internal">
        <lane id=":n11_9_0" index="0" speed="3.65" length="2.34" shape="1510.40,1501.60 1509.20,1500.80 1508.80,1500.00"/>
    </edge>
    <edge id=":n11_22" function="internal">
        <lane id=":n11_22_0" index="0" speed="9.26" length="12.40" shape="1503.73,1500.00 1501.40,1498.60 1499.15,1494.85 1498.40,1489.60"/>
    </edge>
    <edge id=":n11_23" function="internal">
        <lane id=":n11_23_0" index="0" speed="3.65" length="2.34" shape="1508.80,1500.00 1509.20,1499.20 1510.40,1498.40"/>
    </edge>
    <edge id=":n11_10" function="internal">
        <lane id=":n11_10_0" index="0" speed="6.51" length="9.03" shape="1504.80,1489.60 1505.15,1492.05 1506.20,1493.80 1507.95,1494.85 1510.40,1495.20"/>
    </edge>
    <edge id=":n11_11" function="internal">
        <lane id=":n11_11_0" index="0" speed="16.00" length="20.80" shape="1504.80,1489.60 1504.80,1510.40"/>
        <lane id=":n11_11_1" index="1" speed="16.00" length="20.80" shape="1501.60,1489.60 1501.60,1510.40"/>
    </edge>
    <edge id=":n11_13" function="internal">
        <lane id=":n11_13_0" index="0" speed="9.26" length="6.96" shape="1501.60,1489.60 1500.85,1494.85 1500.00,1496.27"/>
    </edge>
    <edge id=":n11_14" function="internal">
        <lane id=":n11_14_0" index="0" speed="3.65" length="2.34" shape="1501.60,1489.60 1500.80,1490.80 1500.00,1491.20"/>
    </edge>
    <edge id=":n11_24" function="internal">
        <lane id=":n11_24_0" index="0" speed="9.26" length="12.40" shape="1500.00,1496.27 1498.60,1498.60 1494.85,1500.85 1489.60,1501.60"/>
    </edge>
    <edge id=":n11_25" function="internal">
        <lane id=":n11_25_0" index="0" speed="3.65" length="2.34" shape="1500.00,1491.20 1499.20,1490.80 1498.40,1489.60"/>
    </edge>
    <edge id=":n11_15" function="internal">
        <lane id=":n11_15_0" index="0" speed="6.51" length="9.03" shape="1489.60,1495.20 1492.05,1494.85 1493.80,1493.80 1494.85,1492.05 1495.20,1489.60"/>
    </edge>
    <edge id=":n11_16" function="internal">
        <lane id=":n11_16_0" index="0" speed="16.00" length="20.80" shape="1489.60,1495.20 1510.40,1495.20"/>
        <lane id=":n11_16_1" index="1" speed="16.00" length="20.80" shape="1489.60,1498.40 1510.40,1498.40"/>
    </edge>
    <edge id=":n11_18" function="internal">
        <lane id=":n11_18_0" index="0" speed="9.26" length="6.96" shape="1489.60,1498.40 1494.85,1499.15 1496.27,1500.00"/>
    </edge>
    <edge id=":n11_19" function="internal">
        <lane id=":n11_19_0" index="0" speed="3.65" length="2.34" shape="1489.60,1498.40 1490.80,1499.20 1491.20,1500.00"/>
    </edge>
    <edge id=":n11_26" function="internal">
        <lane id=":n11_26_0" index="0" speed="9.26" length="12.40" shape="1496.27,1500.00 1498.60,1501.40 1500.85,1505.15 1501.60,1510.40"/>
    </edge>
    <edge id=":n11_27" function="internal">
        <lane id=":n11_27_0" index="0" speed="3.65" length="2.34" shape="1491.20,1500.00 1490.80,1500.80 1489.60,1501.60"/>
    </edge>
    <edge id=":n12_0" function="internal">
        <lane id=":n12_0_0" index="0" speed="6.51" length="9.03" shape="1495.20,2010.40 1494.85,2007.95 1493.80,2006.20 1492.05,2005.15 1489.60,2004.80"/>
    </edge>
    <edge id=":n12_1" function="internal">
        <lane id=":n12_1_0" index="0" speed="16.00" length="20.80" shape="1495.20,2010.40 1495.20,1989.60"/>
        <lane id=":n12_1_1" index="1" speed="16.00" length="20.80" shape="1498.40,2010.40 1498.40,1989.60"/>
    </edge>
    <edge id=":n12_3" function="internal">
        <lane id=":n12_3_0" index="0" speed="9.26" length="6.96" shape="1498.40,2010.40 1499.15,2005.15 1500.00,2003.73"/>
    </edge>
    <edge id=":n12_4" function="internal">
        <lane id=":n12_4_0" index="0" speed="3.65" length="2.34" shape="1498.40,2010.40 1499.20,2009.20 1500.00,2008.80"/>
    </edge>
    <edge id=":n12_20" function="internal">
        <lane id=":n12_20_0" index="0" speed="9.26" length="12.40" shape="1500.00,2003.73 1501.40,2001.40 1505.15,1999.15 1510.40,1998.40"/>
    </edge>
    <edge id=":n12_21" function="internal">
        <lane id=":n12_21_0" index="0" speed="3.65" length="2.34" shape="1500.00,2008.80 1500.80,2009.20 1501.60,2010.40"/>
    </edge>
    <edge id=":n12_5" function="internal">
        <lane id=":n12_5_0" index="0" speed="6.51" length="9.03" shape="1510.40,2004.80 1507.95,2005.15 1506.20,2006.20 1505.15,2007.95 1504.80,2010.40"/>
    </edge>
    <edge id=":n12_6" function="internal">
        <lane id=":n12_6_0" index="0" speed="16.00" length="20.80" shape="1510.40,2004.80 1489.60,2004.80"/>
        <lane id=":n12_6_1" index="1" speed="16.00" length="20.80" shape="1510.40,2001.60 1489.60,2001.60"/>
    </edge>
    <edge id=":n12_8" function="internal">
        <lane id=":n12_8_0" index="0" speed="9.26" length="6.96" shape="1510.40,2001.60 1505.15,2000.85 1503.73,2000.00"/>
    </edge>
    <edge id=":n12_9" function="internal">
        <lane id=":n12_9_0" index="0" speed="3.65" length="2.34" shape="1510.40,2001.60 1509.20,2000.80 1508.80,2000.00"/>
    </edge>
    <edge id=":n12_22" function="internal">
        <lane id=":n12_22_0" index="0" speed="9.26" length="12.40" shape="1503.73,2000.00 1501.40,1998.60 1499.15,1994.85 1498.40,1989.60"/>
    </edge>
    <edge id=":n12_23" function="internal">
        <lane id=":n12_23_0" index="0" speed="3.65" length="2.34" shape="1508.80,2000.00 1509.20,1999.20 1510.40,1998.40"/>
    </edge>
    <edge id=":n12_10" function="internal">
        <lane id=":n12_10_0" index="0" speed="6.51" length="9.03" shape="1504.80,1989.60 1505.15,1992.05 1506.20,1993.80 1507.95,1994.85 1510.40,1995.20"/>
    </edge>
    <edge id=":n12_11" function="internal">
        <lane id=":n12_11_0" index="0" speed="16.00" length="20.80" shape="1504.80,1989.60 1504.80,2010.40"/>
        <lane id=":n12_11_1" index="1" speed="16.00" length="20.80" shape="1501.60,1989.60 1501.60,2010.40"/>
    </edge>
    <edge id=":n12_13" function="internal">
        <lane id=":n12_13_0" index="0" speed="9.26" length="6.96" shape="1501.60,1989.60 1500.85,1994.85 1500.00,1996.27"/>
    </edge>
    <edge id=":n12_14" function="internal">
        <lane id=":n12_14_0" index="0" speed="3.65" length="2.34" shape="1501.60,1989.60 1500.80,1990.80 1500.00,1991.20"/>
    </edge>
    <edge id=":n12_24" function="internal">
        <lane id=":n12_24_0" index="0" speed="9.26" length="12.40" shape="1500.00,1996.27 1498.60,1998.60 1494.85,2000.85 1489.60,2001.60"/>
    </edge>
    <edge id=":n12_25" function="internal">
        <lane id=":n12_25_0" index="0" speed="3.65" length="2.34" shape="1500.00,1991.20 1499.20,1990.80 1498.40,1989.60"/>
    </edge>
    <edge id=":n12_15" function="internal">
        <lane id=":n12_15_0" index="0" speed="6.51" length="9.03" shape="1489.60,1995.20 1492.05,1994.85 1493.80,1993.80 1494.85,1992.05 1495.20,1989.60"/>
    </edge>
    <edge id=":n12_16" function="internal">
        <lane id=":n12_16_0" index="0" speed="16.00" length="20.80" shape="1489.60,1995.20 1510.40,1995.20"/>
        <lane id=":n12_16_1" index="1" speed="16.00" length="20.80" shape="1489.60,1998.40 1510.40,1998.40"/>
    </edge>
    <edge id=":n12_18" function="internal">
        <lane id=":n12_18_0" index="0" speed="9.26" length="6.96" shape="1489.60,1998.40 1494.85,1999.15 1496.27,2000.00"/>
    </edge>
    <edge id=":n12_19" function="internal">
        <lane id=":n12_19_0" index="0" speed="3.65" length="2.34" shape="1489.60,1998.40 1490.80,1999.20 1491.20,2000.00"/>
    </edge>
    <edge id=":n12_26" function="internal">
        <lane id=":n12_26_0" index="0" speed="9.26" length="12.40" shape="1496.27,2000.00 1498.60,2001.40 1500.85,2005.15 1501.60,2010.40"/>
    </edge>
    <edge id=":n12_27" function="internal">
        <lane id=":n12_27_0" index="0" speed="3.65" length="2.34" shape="1491.20,2000.00 1490.80,2000.80 1489.60,2001.60"/>
    </edge>
    <edge id=":n13_0" function="internal">
        <lane id=":n13_0_0" index="0" speed="6.51" length="9.03" shape="1995.20,510.40 1994.85,507.95 1993.80,506.20 1992.05,505.15 1989.60,504.80"/>
    </edge>
    <edge id=":n13_1" function="internal">
        <lane id=":n13_1_0" index="0" speed="16.00" length="20.80" shape="1995.20,510.40 1995.20,489.60"/>
        <lane id=":n13_1_1" index="1" speed="16.00" length="20.80" shape="1998.40,510.40 1998.40,489.60"/>
    </edge>
    <edge id=":n13_3" function="internal">
        <lane id=":n13_3_0" index="0" speed="9.26" length="6.96" shape="1998.40,510.40 1999.15,505.15 2000.00,503.73"/>
    </edge>
    <edge id=":n13_4" function="internal">
        <lane id=":n13_4_0" index="0" speed="3.65" length="2.34" shape="1998.40,510.40 1999.20,509.20 2000.00,508.80"/>
    </edge>
    <edge id=":n13_20" function="internal">
        <lane id=":n13_20_0" index="0" speed="9.26" length="12.40" shape="2000.00,503.73 2001.40,501.40 2005.15,499.15 2010.40,498.40"/>
    </edge>
    <edge id=":n13_21" function="internal">
        <lane id=":n13_21_0" index="0" speed="3.65" length="2.34" shape="2000.00,508.80 2000.80,509.20 2001.60,510.40"/>
    </edge>
    <edge id=":n13_5" function="internal">
        <lane id=":n13_5_0" index="0" speed="6.51" length="9.03" shape="2010.40,504.80 2007.95,505.15 2006.20,506.20 2005.15,507.95 2004.80,510.40"/>
    </edge>
    <edge id=":n13_6" function="internal">
        <lane id=":n13_6_0" index="0" speed="16.00" length="20.80" shape="2010.40,504.80 1989.60,504.80"/>
        <lane id=":n13_6_1" index="1" speed="16.00" length="20.80" shape="2010.40,501.60 1989.60,501.60"/>
    </edge>
    <edge id=":n13_8" function="internal">
        <lane id=":n13_8_0" index="0" speed="9.26" length="6.96" shape="2010.40,501.60 2005.15,500.85 2003.73,500.00"/>
    </edge>
    <edge id=":n13_9" function="internal">
        <lane id=":n13_9_0" index="0" speed="3.65" length="2.34" shape="2010.40,501.60 2009.20,500.80 2008.80,500.00"/>
    </edge>
    <edge id=":n13_22" function="internal">
        <lane id=":n13_22_0" index="0" speed="9.26" length="12.40" shape="2003.73,500.00 2001.40,498.60 1999.15,494.85 1998.40,489.60"/>
    </edge>
    <edge id=":n13_23" function="internal">
        <lane id=":n13_23_0" index="0" speed="3.65" length="2.34" shape="2008.80,500.00 2009.20,499.20 2010.40,498.40"/>
    </edge>
    <edge id=":n13_10" function="internal">
        <lane id=":n13_10_0" index="0" speed="6.51" length="9.03" shape="2004.80,489.60 2005.15,492.05 2006.20,493.80 2007.95,494.85 2010.40,495.20"/>
    </edge>
    <edge id=":n13_11" function="internal">
        <lane id=":n13_11_0" index="0" speed="16.00" length="20.80" shape="2004.80,489.60 2004.80,510.40"/>
        <lane id=":n13_11_1" index="1" speed="16.00" length="20.80" shape="2001.60,489.60 2001.60,510.40"/>
    </edge>
    <edge id=":n13_13" function="internal">
        <lane id=":n13_13_0" index="0" speed="9.26" length="6.96" shape="2001.60,489.60 2000.85,494.85 2000.00,496.27"/>
    </edge>
    <edge id=":n13_14" function="internal">
        <lane id=":n13_14_0" index="0" speed="3.65" length="2.34" shape="2001.60,489.60 2000.80,490.80 2000.00,491.20"/>
    </edge>
    <edge id=":n13_24" function="internal">
        <lane id=":n13_24_0" index="0" speed="9.26" length="12.40" shape="2000.00,496.27 1998.60,498.60 1994.85,500.85 1989.60,501.60"/>
    </edge>
    <edge id=":n13_25" function="internal">
        <lane id=":n13_25_0" index="0" speed="3.65" length="2.34" shape="2000.00,491.20 1999.20,490.80 1998.40,489.60"/>
    </edge>
    <edge id=":n13_15" function="internal">
        <lane id=":n13_15_0" index="0" speed="6.51" length="9.03" shape="1989.60,495.20 1992.05,494.85 1993.80,493.80 1994.85,492.05 1995.20,489.60"/>
    </edge>
    <edge id=":n13_16" function="internal">
        <lane id=":n13_16_0" index="0" speed="16.00" length="20.80" shape="1989.60,495.20 2010.40,495.20"/>
        <lane id=":n13_16_1" index="1" speed="16.00" length="20.80" shape="1989.60,498.40 2010.40,498.40"/>
    </edge>
    <edge id=":n13_18" function="internal">
        <lane id=":n13_18_0" index="0" speed="9.26" length="6.96" shape="1989.60,498.40 1994.85,499.15 1996.27,500.00"/>
    </edge>
    <edge id=":n13_19" function="internal">
        <lane id=":n13_19_0" index="0" speed="3.65" length="2.34" shape="1989.60,498.40 1990.80,499.20 1991.20,500.00"/>
    </edge>
    <edge id=":n13_26" function="internal">
        <lane id=":n13_26_0" index="0" speed="9.26" length="12.40" shape="1996.27,500.00 1998.60,501.40 2000.85,505.15 2001.60,510.40"/>
    </edge>
    <edge id=":n13_27" function="internal">
        <lane id=":n13_27_0" index="0" speed="3.65" length="2.34" shape="1991.20,500.00 1990.80,500.80 1989.60,501.60"/>
    </edge>
    <edge id=":n14_0" function="internal">
        <lane id=":n14_0_0" index="0" speed="6.51" length="9.03" shape="1995.20,1010.40 1994.85,1007.95 1993.80,1006.20 1992.05,1005.15 1989.60,1004.80"/>
    </edge>
    <edge id=":n14_1" function="internal">
        <lane id=":n14_1_0" index="0" speed="16.00" length="20.80" shape="1995.20,1010.40 1995.20,989.60"/>
        <lane id=":n14_1_1" index="1" speed="16.00" length="20.80" shape="1998.40,1010.40 1998.40,989.60"/>
    </edge>
    <edge id=":n14_3" function="internal">
        <lane id=":n14_3_0" index="0" speed="9.26" length="6.96" shape="1998.40,1010.40 1999.15,1005.15 2000.00,1003.73"/>
    </edge>
    <edge id=":n14_4" function="internal">
        <lane id=":n14_4_0" index="0" speed="3.65" length="2.34" shape="1998.40,1010.40 1999.20,1009.20 2000.00,1008.80"/>
    </edge>
    <edge id=":n14_20" function="internal">
        <lane id=":n14_20_0" index="0" speed="9.26" length="12.40" shape="2000.00,1003.73 2001.40,1001.40 2005.15,999.15 2010.40,998.40"/>
    </edge>
    <edge id=":n14_21" function="internal">
        <lane id=":n14_21_0" index="0" speed="3.65" length="2.34" shape="2000.00,1008.80 2000.80,1009.20 2001.60,1010.40"/>
    </edge>
    <edge id=":n14_5" function="internal">
        <lane id=":n14_5_0" index="0" speed="6.51" length="9.03" shape="2010.40,1004.80 2007.95,1005.15 2006.20,1006.20 2005.15,1007.95 2004.80,1010.40"/>
    </edge>
    <edge id=":n14_6" function="internal">
        <lane id=":n14_6_0" index="0" speed="16.00" length="20.80" shape="2010.40,1004.80 1989.60,1004.80"/>
        <lane id=":n14_6_1" index="1" speed="16.00" length="20.80" shape="2010.40,1001.60 1989.60,1001.60"/>
    </edge>
    <edge id=":n14_8" function="internal">
        <lane id=":n14_8_0" index="0" speed="9.26" length="6.96" shape="2010.40,1001.60 2005.15,1000.85 2003.73,1000.00"/>
    </edge>
    <edge id=":n14_9" function="internal">
        <lane id=":n14_9_0" index="0" speed="3.65" length="2.34" shape="2010.40,1001.60 2009.20,1000.80 2008.80,1000.00"/>
    </edge>
    <edge id=":n14_22" function="internal">
        <lane id=":n14_22_0" index="0" speed="9.26" length="12.40" shape="2003.73,1000.00 2001.40,998.60 1999.15,994.85 1998.40,989.60"/>
    </edge>
    <edge id=":n14_23" function="internal">
        <lane id=":n14_23_0" index="0" speed="3.65" length="2.34" shape="2008.80,1000.00 2009.20,999.20 2010.40,998.40"/>
    </edge>
    <edge id=":n14_10" function="internal">
        <lane id=":n14_10_0" index="0" speed="6.51" length="9.03" shape="2004.80,989.60 2005.15,992.05 2006.20,993.80 2007.95,994.85 2010.40,995.20"/>
    </edge>
    <edge id=":n14_11" function="internal">
        <lane id=":n14_11_0" index="0" speed="16.00" length="20.80" shape="2004.80,989.60 2004.80,1010.40"/>
        <lane id=":n14_11_1" index="1" speed="16.00" length="20.80" shape="2001.60,989.60 2001.60,1010.40"/>
    </edge>
    <edge id=":n14_13" function="internal">
        <lane id=":n14_13_0" index="0" speed="9.26" length="6.96" shape="2001.60,989.60 2000.85,994.85 2000.00,996.27"/>
    </edge>
    <edge id=":n14_14" function="internal">
        <lane id=":n14_14_0" index="0" speed="3.65" length="2.34" shape="2001.60,989.60 2000.80,990.80 2000.00,991.20"/>
    </edge>
    <edge id=":n14_24" function="internal">
        <lane id=":n14_24_0" index="0" speed="9.26" length="12.40" shape="2000.00,996.27 1998.60,998.60 1994.85,1000.85 1989.60,1001.60"/>
    </edge>
    <edge id=":n14_25" function="internal">
        <lane id=":n14_25_0" index="0" speed="3.65" length="2.34" shape="2000.00,991.20 1999.20,990.80 1998.40,989.60"/>
    </edge>
    <edge id=":n14_15" function="internal">
        <lane id=":n14_15_0" index="0" speed="6.51" length="9.03" shape="1989.60,995.20 1992.05,994.85 1993.80,993.80 1994.85,992.05 1995.20,989.60"/>
    </edge>
    <edge id=":n14_16" function="internal">
        <lane id=":n14_16_0" index="0" speed="16.00" length="20.80" shape="1989.60,995.20 2010.40,995.20"/>
        <lane id=":n14_16_1" index="1" speed="16.00" length="20.80" shape="1989.60,998.40 2010.40,998.40"/>
    </edge>
    <edge id=":n14_18" function="internal">
        <lane id=":n14_18_0" index="0" speed="9.26" length="6.96" shape="1989.60,998.40 1994.85,999.15 1996.27,1000.00"/>
    </edge>
    <edge id=":n14_19" function="internal">
        <lane id=":n14_19_0" index="0" speed="3.65" length="2.34" shape="1989.60,998.40 1990.80,999.20 1991.20,1000.00"/>
    </edge>
    <edge id=":n14_26" function="internal">