<?xml version="1.0" encoding="UTF-8"?>

<!-- generated on Wed 25 Sep 2019 02:14:41 PM CEST by Eclipse SUMO netedit Version v1_3_1+0234-c526b02090
<configuration xmlns:xsi="http://www.w3.org/2001/XMLSchema-instance" xsi:noNamespaceSchemaLocation="http://sumo.dlr.de/xsd/netconvertConfiguration.xsd">

    <input>
        <sumo-net-file value="/home/thomas/AAUP7/SUMOfiles/NetFile.net.xml"/>
    </input>

    <output>
        <output-file value="/home/thomas/AAUP7/SUMOfiles/NetFile2.net.xml"/>
    </output>

    <processing>
        <geometry.max-grade.fix value="false"/>
        <offset.disable-normalization value="true"/>
        <lefthand value="false"/>
    </processing>

    <junctions>
        <no-turnarounds value="true"/>
        <junctions.corner-detail value="5"/>
        <junctions.limit-turn-speed value="5.5"/>
        <rectangular-lane-cut value="false"/>
    </junctions>

    <pedestrian>
        <walkingareas value="false"/>
    </pedestrian>

</configuration>
-->

<net version="1.3" junctionCornerDetail="5" limitTurnSpeed="5.50" xmlns:xsi="http://www.w3.org/2001/XMLSchema-instance" xsi:noNamespaceSchemaLocation="http://sumo.dlr.de/xsd/net_file.xsd">

    <location netOffset="0.00,0.00" convBoundary="0.00,0.00,1200.00,1200.00" origBoundary="0.00,0.00,1200.00,1200.00" projParameter="!"/>

    <type id="standardroad" priority="1" numLanes="2" speed="16.00"/>

    <edge id=":n1_0" function="internal">
        <lane id=":n1_0_0" index="0" speed="6.51" length="9.03" shape="198.40,207.20 198.05,204.75 197.00,203.00 195.25,201.95 192.80,201.60"/>
    </edge>
    <edge id=":n1_1" function="internal">
        <lane id=":n1_1_0" index="0" speed="16.00" length="14.40" shape="198.40,207.20 198.40,192.80"/>
    </edge>
    <edge id=":n1_2" function="internal">
        <lane id=":n1_2_0" index="0" speed="8.00" length="5.93" shape="198.40,207.20 198.95,203.35 200.00,201.60"/>
    </edge>
    <edge id=":n1_3" function="internal">
        <lane id=":n1_3_0" index="0" speed="3.65" length="2.34" shape="198.40,207.20 199.20,206.00 200.00,205.60"/>
    </edge>
    <edge id=":n1_16" function="internal">
        <lane id=":n1_16_0" index="0" speed="8.00" length="8.26" shape="200.00,201.60 200.60,200.60 203.35,198.95 207.20,198.40"/>
    </edge>
    <edge id=":n1_17" function="internal">
        <lane id=":n1_17_0" index="0" speed="3.65" length="2.34" shape="200.00,205.60 200.80,206.00 201.60,207.20"/>
    </edge>
    <edge id=":n1_4" function="internal">
        <lane id=":n1_4_0" index="0" speed="6.51" length="9.03" shape="207.20,201.60 204.75,201.95 203.00,203.00 201.95,204.75 201.60,207.20"/>
    </edge>
    <edge id=":n1_5" function="internal">
        <lane id=":n1_5_0" index="0" speed="16.00" length="14.40" shape="207.20,201.60 192.80,201.60"/>
    </edge>
    <edge id=":n1_6" function="internal">
        <lane id=":n1_6_0" index="0" speed="8.00" length="5.93" shape="207.20,201.60 203.35,201.05 201.60,200.00"/>
    </edge>
    <edge id=":n1_7" function="internal">
        <lane id=":n1_7_0" index="0" speed="3.65" length="2.34" shape="207.20,201.60 206.00,200.80 205.60,200.00"/>
    </edge>
    <edge id=":n1_18" function="internal">
        <lane id=":n1_18_0" index="0" speed="8.00" length="8.26" shape="201.60,200.00 200.60,199.40 198.95,196.65 198.40,192.80"/>
    </edge>
    <edge id=":n1_19" function="internal">
        <lane id=":n1_19_0" index="0" speed="3.65" length="2.34" shape="205.60,200.00 206.00,199.20 207.20,198.40"/>
    </edge>
    <edge id=":n1_8" function="internal">
        <lane id=":n1_8_0" index="0" speed="6.51" length="9.03" shape="201.60,192.80 201.95,195.25 203.00,197.00 204.75,198.05 207.20,198.40"/>
    </edge>
    <edge id=":n1_9" function="internal">
        <lane id=":n1_9_0" index="0" speed="16.00" length="14.40" shape="201.60,192.80 201.60,207.20"/>
    </edge>
    <edge id=":n1_10" function="internal">
        <lane id=":n1_10_0" index="0" speed="8.00" length="5.93" shape="201.60,192.80 201.05,196.65 200.00,198.40"/>
    </edge>
    <edge id=":n1_11" function="internal">
        <lane id=":n1_11_0" index="0" speed="3.65" length="2.34" shape="201.60,192.80 200.80,194.00 200.00,194.40"/>
    </edge>
    <edge id=":n1_20" function="internal">
        <lane id=":n1_20_0" index="0" speed="8.00" length="8.26" shape="200.00,198.40 199.40,199.40 196.65,201.05 192.80,201.60"/>
    </edge>
    <edge id=":n1_21" function="internal">
        <lane id=":n1_21_0" index="0" speed="3.65" length="2.34" shape="200.00,194.40 199.20,194.00 198.40,192.80"/>
    </edge>
    <edge id=":n1_12" function="internal">
        <lane id=":n1_12_0" index="0" speed="6.51" length="9.03" shape="192.80,198.40 195.25,198.05 197.00,197.00 198.05,195.25 198.40,192.80"/>
    </edge>
    <edge id=":n1_13" function="internal">
        <lane id=":n1_13_0" index="0" speed="16.00" length="14.40" shape="192.80,198.40 207.20,198.40"/>
    </edge>
    <edge id=":n1_14" function="internal">
        <lane id=":n1_14_0" index="0" speed="8.00" length="5.93" shape="192.80,198.40 196.65,198.95 198.40,200.00"/>
    </edge>
    <edge id=":n1_15" function="internal">
        <lane id=":n1_15_0" index="0" speed="3.65" length="2.34" shape="192.80,198.40 194.00,199.20 194.40,200.00"/>
    </edge>
    <edge id=":n1_22" function="internal">
        <lane id=":n1_22_0" index="0" speed="8.00" length="8.26" shape="198.40,200.00 199.40,200.60 201.05,203.35 201.60,207.20"/>
    </edge>
    <edge id=":n1_23" function="internal">
        <lane id=":n1_23_0" index="0" speed="3.65" length="2.34" shape="194.40,200.00 194.00,200.80 192.80,201.60"/>
    </edge>
    <edge id=":n10_0" function="internal">
        <lane id=":n10_0_0" index="0" speed="6.51" length="9.03" shape="598.40,407.20 598.05,404.75 597.00,403.00 595.25,401.95 592.80,401.60"/>
    </edge>
    <edge id=":n10_1" function="internal">
        <lane id=":n10_1_0" index="0" speed="16.00" length="14.40" shape="598.40,407.20 598.40,392.80"/>
    </edge>
    <edge id=":n10_2" function="internal">
        <lane id=":n10_2_0" index="0" speed="8.00" length="5.93" shape="598.40,407.20 598.95,403.35 600.00,401.60"/>
    </edge>
    <edge id=":n10_3" function="internal">
        <lane id=":n10_3_0" index="0" speed="3.65" length="2.34" shape="598.40,407.20 599.20,406.00 600.00,405.60"/>
    </edge>
    <edge id=":n10_16" function="internal">
        <lane id=":n10_16_0" index="0" speed="8.00" length="8.26" shape="600.00,401.60 600.60,400.60 603.35,398.95 607.20,398.40"/>
    </edge>
    <edge id=":n10_17" function="internal">
        <lane id=":n10_17_0" index="0" speed="3.65" length="2.34" shape="600.00,405.60 600.80,406.00 601.60,407.20"/>
    </edge>
    <edge id=":n10_4" function="internal">
        <lane id=":n10_4_0" index="0" speed="6.51" length="9.03" shape="607.20,401.60 604.75,401.95 603.00,403.00 601.95,404.75 601.60,407.20"/>
    </edge>
    <edge id=":n10_5" function="internal">
        <lane id=":n10_5_0" index="0" speed="16.00" length="14.40" shape="607.20,401.60 592.80,401.60"/>
    </edge>
    <edge id=":n10_6" function="internal">
        <lane id=":n10_6_0" index="0" speed="8.00" length="5.93" shape="607.20,401.60 603.35,401.05 601.60,400.00"/>
    </edge>
    <edge id=":n10_7" function="internal">
        <lane id=":n10_7_0" index="0" speed="3.65" length="2.34" shape="607.20,401.60 606.00,400.80 605.60,400.00"/>
    </edge>
    <edge id=":n10_18" function="internal">
        <lane id=":n10_18_0" index="0" speed="8.00" length="8.26" shape="601.60,400.00 600.60,399.40 598.95,396.65 598.40,392.80"/>
    </edge>
    <edge id=":n10_19" function="internal">
        <lane id=":n10_19_0" index="0" speed="3.65" length="2.34" shape="605.60,400.00 606.00,399.20 607.20,398.40"/>
    </edge>
    <edge id=":n10_8" function="internal">
        <lane id=":n10_8_0" index="0" speed="6.51" length="9.03" shape="601.60,392.80 601.95,395.25 603.00,397.00 604.75,398.05 607.20,398.40"/>
    </edge>
    <edge id=":n10_9" function="internal">
        <lane id=":n10_9_0" index="0" speed="16.00" length="14.40" shape="601.60,392.80 601.60,407.20"/>
    </edge>
    <edge id=":n10_10" function="internal">
        <lane id=":n10_10_0" index="0" speed="8.00" length="5.93" shape="601.60,392.80 601.05,396.65 600.00,398.40"/>
    </edge>
    <edge id=":n10_11" function="internal">
        <lane id=":n10_11_0" index="0" speed="3.65" length="2.34" shape="601.60,392.80 600.80,394.00 600.00,394.40"/>
    </edge>
    <edge id=":n10_20" function="internal">
        <lane id=":n10_20_0" index="0" speed="8.00" length="8.26" shape="600.00,398.40 599.40,399.40 596.65,401.05 592.80,401.60"/>
    </edge>
    <edge id=":n10_21" function="internal">
        <lane id=":n10_21_0" index="0" speed="3.65" length="2.34" shape="600.00,394.40 599.20,394.00 598.40,392.80"/>
    </edge>
    <edge id=":n10_12" function="internal">
        <lane id=":n10_12_0" index="0" speed="6.51" length="9.03" shape="592.80,398.40 595.25,398.05 597.00,397.00 598.05,395.25 598.40,392.80"/>
    </edge>
    <edge id=":n10_13" function="internal">
        <lane id=":n10_13_0" index="0" speed="16.00" length="14.40" shape="592.80,398.40 607.20,398.40"/>
    </edge>
    <edge id=":n10_14" function="internal">
        <lane id=":n10_14_0" index="0" speed="8.00" length="5.93" shape="592.80,398.40 596.65,398.95 598.40,400.00"/>
    </edge>
    <edge id=":n10_15" function="internal">
        <lane id=":n10_15_0" index="0" speed="3.65" length="2.34" shape="592.80,398.40 594.00,399.20 594.40,400.00"/>
    </edge>
    <edge id=":n10_22" function="internal">
        <lane id=":n10_22_0" index="0" speed="8.00" length="8.26" shape="598.40,400.00 599.40,400.60 601.05,403.35 601.60,407.20"/>
    </edge>
    <edge id=":n10_23" function="internal">
        <lane id=":n10_23_0" index="0" speed="3.65" length="2.34" shape="594.40,400.00 594.00,400.80 592.80,401.60"/>
    </edge>
    <edge id=":n11_0" function="internal">
        <lane id=":n11_0_0" index="0" speed="6.51" length="9.03" shape="598.40,610.40 598.05,607.95 597.00,606.20 595.25,605.15 592.80,604.80"/>
    </edge>
    <edge id=":n11_1" function="internal">
        <lane id=":n11_1_0" index="0" speed="16.00" length="20.80" shape="598.40,610.40 598.40,589.60"/>
    </edge>
    <edge id=":n11_2" function="internal">
        <lane id=":n11_2_0" index="0" speed="8.67" length="7.89" shape="598.40,610.40 598.95,605.15 600.00,602.76"/>
    </edge>
    <edge id=":n11_3" function="internal">
        <lane id=":n11_3_0" index="0" speed="3.65" length="2.34" shape="598.40,610.40 599.20,609.20 600.00,608.80"/>
    </edge>
    <edge id=":n11_18" function="internal">
        <lane id=":n11_18_0" index="0" speed="8.67" length="8.97" shape="600.00,602.76 600.60,601.40 603.35,599.15 607.20,598.40"/>
    </edge>
    <edge id=":n11_19" function="internal">
        <lane id=":n11_19_0" index="0" speed="3.65" length="2.34" shape="600.00,608.80 600.80,609.20 601.60,610.40"/>
    </edge>
    <edge id=":n11_4" function="internal">
        <lane id=":n11_4_0" index="0" speed="6.51" length="9.03" shape="607.20,604.80 604.75,605.15 603.00,606.20 601.95,607.95 601.60,610.40"/>
    </edge>
    <edge id=":n11_5" function="internal">
        <lane id=":n11_5_0" index="0" speed="16.00" length="14.40" shape="607.20,604.80 592.80,604.80"/>
        <lane id=":n11_5_1" index="1" speed="16.00" length="14.40" shape="607.20,601.60 592.80,601.60"/>
    </edge>
    <edge id=":n11_7" function="internal">
        <lane id=":n11_7_0" index="0" speed="8.67" length="5.26" shape="607.20,601.60 603.35,600.85 602.31,600.00"/>
    </edge>
    <edge id=":n11_8" function="internal">
        <lane id=":n11_8_0" index="0" speed="3.65" length="2.34" shape="607.20,601.60 606.00,600.80 605.60,600.00"/>
    </edge>
    <edge id=":n11_20" function="internal">
        <lane id=":n11_20_0" index="0" speed="8.67" length="11.59" shape="602.31,600.00 600.60,598.60 598.95,594.85 598.40,589.60"/>
    </edge>
    <edge id=":n11_21" function="internal">
        <lane id=":n11_21_0" index="0" speed="3.65" length="2.34" shape="605.60,600.00 606.00,599.20 607.20,598.40"/>
    </edge>
    <edge id=":n11_9" function="internal">
        <lane id=":n11_9_0" index="0" speed="6.51" length="9.03" shape="601.60,589.60 601.95,592.05 603.00,593.80 604.75,594.85 607.20,595.20"/>
    </edge>
    <edge id=":n11_10" function="internal">
        <lane id=":n11_10_0" index="0" speed="16.00" length="20.80" shape="601.60,589.60 601.60,610.40"/>
    </edge>
    <edge id=":n11_11" function="internal">
        <lane id=":n11_11_0" index="0" speed="8.67" length="7.89" shape="601.60,589.60 601.05,594.85 600.00,597.24"/>
    </edge>
    <edge id=":n11_12" function="internal">
        <lane id=":n11_12_0" index="0" speed="3.65" length="2.34" shape="601.60,589.60 600.80,590.80 600.00,591.20"/>
    </edge>
    <edge id=":n11_22" function="internal">
        <lane id=":n11_22_0" index="0" speed="8.67" length="8.97" shape="600.00,597.24 599.40,598.60 596.65,600.85 592.80,601.60"/>
    </edge>
    <edge id=":n11_23" function="internal">
        <lane id=":n11_23_0" index="0" speed="3.65" length="2.34" shape="600.00,591.20 599.20,590.80 598.40,589.60"/>
    </edge>
    <edge id=":n11_13" function="internal">
        <lane id=":n11_13_0" index="0" speed="6.51" length="9.03" shape="592.80,595.20 595.25,594.85 597.00,593.80 598.05,592.05 598.40,589.60"/>
    </edge>
    <edge id=":n11_14" function="internal">
        <lane id=":n11_14_0" index="0" speed="16.00" length="14.40" shape="592.80,595.20 607.20,595.20"/>
        <lane id=":n11_14_1" index="1" speed="16.00" length="14.40" shape="592.80,598.40 607.20,598.40"/>
    </edge>
    <edge id=":n11_16" function="internal">
        <lane id=":n11_16_0" index="0" speed="8.67" length="5.26" shape="592.80,598.40 596.65,599.15 597.69,600.00"/>
    </edge>
    <edge id=":n11_17" function="internal">
        <lane id=":n11_17_0" index="0" speed="3.65" length="2.34" shape="592.80,598.40 594.00,599.20 594.40,600.00"/>
    </edge>
    <edge id=":n11_24" function="internal">
        <lane id=":n11_24_0" index="0" speed="8.67" length="11.59" shape="597.69,600.00 599.40,601.40 601.05,605.15 601.60,610.40"/>
    </edge>
    <edge id=":n11_25" function="internal">
        <lane id=":n11_25_0" index="0" speed="3.65" length="2.34" shape="594.40,600.00 594.00,600.80 592.80,601.60"/>
    </edge>
    <edge id=":n12_0" function="internal">
        <lane id=":n12_0_0" index="0" speed="6.51" length="9.03" shape="598.40,807.20 598.05,804.75 597.00,803.00 595.25,801.95 592.80,801.60"/>
    </edge>
    <edge id=":n12_1" function="internal">
        <lane id=":n12_1_0" index="0" speed="16.00" length="14.40" shape="598.40,807.20 598.40,792.80"/>
    </edge>
    <edge id=":n12_2" function="internal">
        <lane id=":n12_2_0" index="0" speed="8.00" length="5.93" shape="598.40,807.20 598.95,803.35 600.00,801.60"/>
    </edge>
    <edge id=":n12_3" function="internal">
        <lane id=":n12_3_0" index="0" speed="3.65" length="2.34" shape="598.40,807.20 599.20,806.00 600.00,805.60"/>
    </edge>
    <edge id=":n12_16" function="internal">
        <lane id=":n12_16_0" index="0" speed="8.00" length="8.26" shape="600.00,801.60 600.60,800.60 603.35,798.95 607.20,798.40"/>
    </edge>
    <edge id=":n12_17" function="internal">
        <lane id=":n12_17_0" index="0" speed="3.65" length="2.34" shape="600.00,805.60 600.80,806.00 601.60,807.20"/>
    </edge>
    <edge id=":n12_4" function="internal">
        <lane id=":n12_4_0" index="0" speed="6.51" length="9.03" shape="607.20,801.60 604.75,801.95 603.00,803.00 601.95,804.75 601.60,807.20"/>
    </edge>
    <edge id=":n12_5" function="internal">
        <lane id=":n12_5_0" index="0" speed="16.00" length="14.40" shape="607.20,801.60 592.80,801.60"/>
    </edge>
    <edge id=":n12_6" function="internal">
        <lane id=":n12_6_0" index="0" speed="8.00" length="5.93" shape="607.20,801.60 603.35,801.05 601.60,800.00"/>
    </edge>
    <edge id=":n12_7" function="internal">
        <lane id=":n12_7_0" index="0" speed="3.65" length="2.34" shape="607.20,801.60 606.00,800.80 605.60,800.00"/>
    </edge>
    <edge id=":n12_18" function="internal">
        <lane id=":n12_18_0" index="0" speed="8.00" length="8.26" shape="601.60,800.00 600.60,799.40 598.95,796.65 598.40,792.80"/>
    </edge>
    <edge id=":n12_19" function="internal">
        <lane id=":n12_19_0" index="0" speed="3.65" length="2.34" shape="605.60,800.00 606.00,799.20 607.20,798.40"/>
    </edge>
    <edge id=":n12_8" function="internal">
        <lane id=":n12_8_0" index="0" speed="6.51" length="9.03" shape="601.60,792.80 601.95,795.25 603.00,797.00 604.75,798.05 607.20,798.40"/>
    </edge>
    <edge id=":n12_9" function="internal">
        <lane id=":n12_9_0" index="0" speed="16.00" length="14.40" shape="601.60,792.80 601.60,807.20"/>
    </edge>
    <edge id=":n12_10" function="internal">
        <lane id=":n12_10_0" index="0" speed="8.00" length="5.93" shape="601.60,792.80 601.05,796.65 600.00,798.40"/>
    </edge>
    <edge id=":n12_11" function="internal">
        <lane id=":n12_11_0" index="0" speed="3.65" length="2.34" shape="601.60,792.80 600.80,794.00 600.00,794.40"/>
    </edge>
    <edge id=":n12_20" function="internal">
        <lane id=":n12_20_0" index="0" speed="8.00" length="8.26" shape="600.00,798.40 599.40,799.40 596.65,801.05 592.80,801.60"/>
    </edge>
    <edge id=":n12_21" function="internal">
        <lane id=":n12_21_0" index="0" speed="3.65" length="2.34" shape="600.00,794.40 599.20,794.00 598.40,792.80"/>
    </edge>
    <edge id=":n12_12" function="internal">
        <lane id=":n12_12_0" index="0" speed="6.51" length="9.03" shape="592.80,798.40 595.25,798.05 597.00,797.00 598.05,795.25 598.40,792.80"/>
    </edge>
    <edge id=":n12_13" function="internal">
        <lane id=":n12_13_0" index="0" speed="16.00" length="14.40" shape="592.80,798.40 607.20,798.40"/>
    </edge>
    <edge id=":n12_14" function="internal">
        <lane id=":n12_14_0" index="0" speed="8.00" length="5.93" shape="592.80,798.40 596.65,798.95 598.40,800.00"/>
    </edge>
    <edge id=":n12_15" function="internal">
        <lane id=":n12_15_0" index="0" speed="3.65" length="2.34" shape="592.80,798.40 594.00,799.20 594.40,800.00"/>
    </edge>
    <edge id=":n12_22" function="internal">
        <lane id=":n12_22_0" index="0" speed="8.00" length="8.26" shape="598.40,800.00 599.40,800.60 601.05,803.35 601.60,807.20"/>
    </edge>
    <edge id=":n12_23" function="internal">
        <lane id=":n12_23_0" index="0" speed="3.65" length="2.34" shape="594.40,800.00 594.00,800.80 592.80,801.60"/>
    </edge>
    <edge id=":n13_0" function="internal">
        <lane id=":n13_0_0" index="0" speed="6.51" length="9.03" shape="795.20,207.20 794.85,204.75 793.80,203.00 792.05,201.95 789.60,201.60"/>
    </edge>
    <edge id=":n13_1" function="internal">
        <lane id=":n13_1_0" index="0" speed="16.00" length="14.40" shape="795.20,207.20 795.20,192.80"/>
        <lane id=":n13_1_1" index="1" speed="16.00" length="14.40" shape="798.40,207.20 798.40,192.80"/>
    </edge>
    <edge id=":n13_3" function="internal">
        <lane id=":n13_3_0" index="0" speed="8.67" length="5.26" shape="798.40,207.20 799.15,203.35 800.00,202.31"/>
    </edge>
    <edge id=":n13_4" function="internal">
        <lane id=":n13_4_0" index="0" speed="3.65" length="2.34" shape="798.40,207.20 799.20,206.00 800.00,205.60"/>
    </edge>
    <edge id=":n13_18" function="internal">
        <lane id=":n13_18_0" index="0" speed="8.67" length="11.59" shape="800.00,202.31 801.40,200.60 805.15,198.95 810.40,198.40"/>
    </edge>
    <edge id=":n13_19" function="internal">
        <lane id=":n13_19_0" index="0" speed="3.65" length="2.34" shape="800.00,205.60 800.80,206.00 801.60,207.20"/>
    </edge>
    <edge id=":n13_5" function="internal">
        <lane id=":n13_5_0" index="0" speed="6.51" length="9.03" shape="810.40,201.60 807.95,201.95 806.20,203.00 805.15,204.75 804.80,207.20"/>
    </edge>
    <edge id=":n13_6" function="internal">
        <lane id=":n13_6_0" index="0" speed="16.00" length="20.80" shape="810.40,201.60 789.60,201.60"/>
    </edge>
    <edge id=":n13_7" function="internal">
        <lane id=":n13_7_0" index="0" speed="8.67" length="7.89" shape="810.40,201.60 805.15,201.05 802.76,200.00"/>
    </edge>
    <edge id=":n13_8" function="internal">
        <lane id=":n13_8_0" index="0" speed="3.65" length="2.34" shape="810.40,201.60 809.20,200.80 808.80,200.00"/>
    </edge>
    <edge id=":n13_20" function="internal">
        <lane id=":n13_20_0" index="0" speed="8.67" length="8.97" shape="802.76,200.00 801.40,199.40 799.15,196.65 798.40,192.80"/>
    </edge>
    <edge id=":n13_21" function="internal">
        <lane id=":n13_21_0" index="0" speed="3.65" length="2.34" shape="808.80,200.00 809.20,199.20 810.40,198.40"/>
    </edge>
    <edge id=":n13_9" function="internal">
        <lane id=":n13_9_0" index="0" speed="6.51" length="9.03" shape="804.80,192.80 805.15,195.25 806.20,197.00 807.95,198.05 810.40,198.40"/>
    </edge>
    <edge id=":n13_10" function="internal">
        <lane id=":n13_10_0" index="0" speed="16.00" length="14.40" shape="804.80,192.80 804.80,207.20"/>
        <lane id=":n13_10_1" index="1" speed="16.00" length="14.40" shape="801.60,192.80 801.60,207.20"/>
    </edge>
    <edge id=":n13_12" function="internal">
        <lane id=":n13_12_0" index="0" speed="8.67" length="5.26" shape="801.60,192.80 800.85,196.65 800.00,197.69"/>
    </edge>
    <edge id=":n13_13" function="internal">
        <lane id=":n13_13_0" index="0" speed="3.65" length="2.34" shape="801.60,192.80 800.80,194.00 800.00,194.40"/>
    </edge>
    <edge id=":n13_22" function="internal">
        <lane id=":n13_22_0" index="0" speed="8.67" length="11.59" shape="800.00,197.69 798.60,199.40 794.85,201.05 789.60,201.60"/>
    </edge>
    <edge id=":n13_23" function="internal">
        <lane id=":n13_23_0" index="0" speed="3.65" length="2.34" shape="800.00,194.40 799.20,194.00 798.40,192.80"/>
    </edge>
    <edge id=":n13_14" function="internal">
        <lane id=":n13_14_0" index="0" speed="6.51" length="9.03" shape="789.60,198.40 792.05,198.05 793.80,197.00 794.85,195.25 795.20,192.80"/>
    </edge>
    <edge id=":n13_15" function="internal">
        <lane id=":n13_15_0" index="0" speed="16.00" length="20.80" shape="789.60,198.40 810.40,198.40"/>
    </edge>
    <edge id=":n13_16" function="internal">
        <lane id=":n13_16_0" index="0" speed="8.67" length="7.89" shape="789.60,198.40 794.85,198.95 797.24,200.00"/>
    </edge>
    <edge id=":n13_17" function="internal">
        <lane id=":n13_17_0" index="0" speed="3.65" length="2.34" shape="789.60,198.40 790.80,199.20 791.20,200.00"/>
    </edge>
    <edge id=":n13_24" function="internal">
        <lane id=":n13_24_0" index="0" speed="8.67" length="8.97" shape="797.24,200.00 798.60,200.60 800.85,203.35 801.60,207.20"/>
    </edge>
    <edge id=":n13_25" function="internal">
        <lane id=":n13_25_0" index="0" speed="3.65" length="2.34" shape="791.20,200.00 790.80,200.80 789.60,201.60"/>
    </edge>
    <edge id=":n14_0" function="internal">
        <lane id=":n14_0_0" index="0" speed="6.51" length="9.03" shape="795.20,407.20 794.85,404.75 793.80,403.00 792.05,401.95 789.60,401.60"/>
    </edge>
    <edge id=":n14_1" function="internal">
        <lane id=":n14_1_0" index="0" speed="16.00" length="14.40" shape="795.20,407.20 795.20,392.80"/>
        <lane id=":n14_1_1" index="1" speed="16.00" length="14.40" shape="798.40,407.20 798.40,392.80"/>
    </edge>
    <edge id=":n14_3" function="internal">
        <lane id=":n14_3_0" index="0" speed="8.67" length="5.26" shape="798.40,407.20 799.15,403.35 800.00,402.31"/>
    </edge>
    <edge id=":n14_4" function="internal">
        <lane id=":n14_4_0" index="0" speed="3.65" length="2.34" shape="798.40,407.20 799.20,406.00 800.00,405.60"/>
    </edge>
    <edge id=":n14_18" function="internal">
        <lane id=":n14_18_0" index="0" speed="8.67" length="11.59" shape="800.00,402.31 801.40,400.60 805.15,398.95 810.40,398.40"/>
    </edge>
    <edge id=":n14_19" function="internal">
        <lane id=":n14_19_0" index="0" speed="3.65" length="2.34" shape="800.00,405.60 800.80,406.00 801.60,407.20"/>
    </edge>
    <edge id=":n14_5" function="internal">
        <lane id=":n14_5_0" index="0" speed="6.51" length="9.03" shape="810.40,401.60 807.95,401.95 806.20,403.00 805.15,404.75 804.80,407.20"/>
    </edge>
    <edge id=":n14_6" function="internal">
        <lane id=":n14_6_0" index="0" speed="16.00" length="20.80" shape="810.40,401.60 789.60,401.60"/>
    </edge>
    <edge id=":n14_7" function="internal">
        <lane id=":n14_7_0" index="0" speed="8.67" length="7.89" shape="810.40,401.60 805.15,401.05 802.76,400.00"/>
    </edge>
    <edge id=":n14_8" function="internal">
        <lane id=":n14_8_0" index="0" speed="3.65" length="2.34" shape="810.40,401.60 809.20,400.80 808.80,400.00"/>
    </edge>
    <edge id=":n14_20" function="internal">
        <lane id=":n14_20_0" index="0" speed="8.67" length="8.97" shape="802.76,400.00 801.40,399.40 799.15,396.65 798.40,392.80"/>
    </edge>
    <edge id=":n14_21" function="internal">
        <lane id=":n14_21_0" index="0" speed="3.65" length="2.34" shape="808.80,400.00 809.20,399.20 810.40,398.40"/>
    </edge>
    <edge id=":n14_9" function="internal">
        <lane id=":n14_9_0" index="0" speed="6.51" length="9.03" shape="804.80,392.80 805.15,395.25 806.20,397.00 807.95,398.05 810.40,398.40"/>
    </edge>
    <edge id=":n14_10" function="internal">
        <lane id=":n14_10_0" index="0" speed="16.00" length="14.40" shape="804.80,392.80 804.80,407.20"/>
        <lane id=":n14_10_1" index="1" speed="16.00" length="14.40" shape="801.60,392.80 801.60,407.20"/>
    </edge>
    <edge id=":n14_12" function="internal">
        <lane id=":n14_12_0" index="0" speed="8.67" length="5.26" shape="801.60,392.80 800.85,396.65 800.00,397.69"/>
    </edge>
    <edge id=":n14_13" function="internal">
        <lane id=":n14_13_0" index="0" speed="3.65" length="2.34" shape="801.60,392.80 800.80,394.00 800.00,394.40"/>
    </edge>
    <edge id=":n14_22" function="internal">
        <lane id=":n14_22_0" index="0" speed="8.67" length="11.59" shape="800.00,397.69 798.60,399.40 794.85,401.05 789.60,401.60"/>
    </edge>
    <edge id=":n14_23" function="internal">
        <lane id=":n14_23_0" index="0" speed="3.65" length="2.34" shape="800.00,394.40 799.20,394.00 798.40,392.80"/>
    </edge>
    <edge id=":n14_14" function="internal">
        <lane id=":n14_14_0" index="0" speed="6.51" length="9.03" shape="789.60,398.40 792.05,398.05 793.80,397.00 794.85,395.25 795.20,392.80"/>
    </edge>
    <edge id=":n14_15" function="internal">
        <lane id=":n14_15_0" index="0" speed="16.00" length="20.80" shape="789.60,398.40 810.40,398.40"/>
    </edge>
    <edge id=":n14_16" function="internal">
        <lane id=":n14_16_0" index="0" speed="8.67" length="7.89" shape="789.60,398.40 794.85,398.95 797.24,400.00"/>
    </edge>
    <edge id=":n14_17" function="internal">
        <lane id=":n14_17_0" index="0" speed="3.65" length="2.34" shape="789.60,398.40 790.80,399.20 791.20,400.00"/>
    </edge>
    <edge id=":n14_24" function="internal">
        <lane id=":n14_24_0" index="0" speed="8.67" length="8.97" shape="797.24,400.00 798.60,400.60 800.85,403.35 801.60,407.20"/>
    </edge>
    <edge id=":n14_25" function="internal">
        <lane id=":n14_25_0" index="0" speed="3.65" length="2.34" shape="791.20,400.00 790.80,400.80 789.60,401.60"/>
    </edge>
    <edge id=":n15_0" function="internal">
        <lane id=":n15_0_0" index="0" speed="10.28" length="24.09" shape="788.80,622.80 788.08,614.92 785.90,609.30 782.27,605.92 777.20,604.80"/>
    </edge>
    <edge id=":n15_1" function="internal">
        <lane id=":n15_1_0" index="0" speed="16.00" length="45.71" shape="792.00,622.80 795.20,577.20"/>
    </edge>
    <edge id=":n15_2" function="internal">
        <lane id=":n15_2_0" index="0" speed="13.84" length="44.51" shape="795.20,622.80 796.92,610.73 802.10,602.10 810.73,596.92 822.80,595.20"/>
    </edge>
    <edge id=":n15_3" function="internal">
        <lane id=":n15_3_0" index="0" speed="13.03" length="39.35" shape="798.40,622.80 799.92,612.12 804.50,604.50 812.12,599.92 822.80,598.40"/>
    </edge>
    <edge id=":n15_4" function="internal">
        <lane id=":n15_4_0" index="0" speed="3.24" length="3.20" shape="798.40,622.80 801.60,622.80"/>
    </edge>
    <edge id=":n15_5" function="internal">
        <lane id=":n15_5_0" index="0" speed="3.65" length="4.67" shape="798.40,622.80 799.20,621.60 800.00,621.20 800.80,621.60 801.60,622.80"/>
    </edge>
    <edge id=":n15_6" function="internal">
        <lane id=":n15_6_0" index="0" speed="16.00" length="45.71" shape="795.20,622.80 798.40,577.20"/>
    </edge>
    <edge id=":n15_7" function="internal">
        <lane id=":n15_7_0" index="0" speed="13.03" length="39.35" shape="798.40,622.80 799.92,612.12 804.50,604.50 812.12,599.92 822.80,598.40"/>
    </edge>
    <edge id=":n15_8" function="internal">
        <lane id=":n15_8_0" index="0" speed="10.28" length="24.09" shape="822.80,611.20 814.92,611.92 809.30,614.10 805.92,617.73 804.80,622.80"/>
    </edge>
    <edge id=":n15_9" function="internal">
        <lane id=":n15_9_0" index="0" speed="10.28" length="24.09" shape="822.80,611.20 814.92,611.92 809.30,614.10 805.92,617.73 804.80,622.80"/>
    </edge>
    <edge id=":n15_10" function="internal">
        <lane id=":n15_10_0" index="0" speed="16.00" length="45.71" shape="822.80,608.00 777.20,604.80"/>
        <lane id=":n15_10_1" index="1" speed="16.00" length="45.71" shape="822.80,604.80 777.20,601.60"/>
    </edge>
    <edge id=":n15_12" function="internal">
        <lane id=":n15_12_0" index="0" speed="13.03" length="12.59" shape="822.80,601.60 812.12,600.08 810.58,599.15"/>
    </edge>