<?xml version="1.0" encoding="UTF-8"?>

<!-- generated on 09/19/19 09:49:34 by Eclipse SUMO netconvert Version 1.1.0
<configuration xmlns:xsi="http://www.w3.org/2001/XMLSchema-instance" xsi:noNamespaceSchemaLocation="http://sumo.dlr.de/xsd/netconvertConfiguration.xsd">

    <input>
        <node-files value="NodeFile.nod.xml"/>
        <edge-files value="EdgeFile.edg.xml"/>
        <type-files value="TypeFile.type.xml"/>
    </input>

    <output>
        <output-file value="NetFile.net.xml"/>
    </output>

</configuration>
-->

<net version="1.1" junctionCornerDetail="5" limitTurnSpeed="5.50" xmlns:xsi="http://www.w3.org/2001/XMLSchema-instance" xsi:noNamespaceSchemaLocation="http://sumo.dlr.de/xsd/net_file.xsd">

    <location netOffset="0.00,0.00" convBoundary="0.00,0.00,1000.00,1000.00" origBoundary="0.00,0.00,1000.00,1000.00" projParameter="!"/>

    <type id="standardroad" priority="1" numLanes="2" speed="16.00"/>

    <edge id=":n1_0" function="internal">
        <lane id=":n1_0_0" index="0" speed="6.51" length="9.03" shape="195.20,210.40 194.85,207.95 193.80,206.20 192.05,205.15 189.60,204.80"/>
    </edge>
    <edge id=":n1_1" function="internal">
        <lane id=":n1_1_0" index="0" speed="16.00" length="20.80" shape="195.20,210.40 195.20,189.60"/>
        <lane id=":n1_1_1" index="1" speed="16.00" length="20.80" shape="198.40,210.40 198.40,189.60"/>
    </edge>
    <edge id=":n1_3" function="internal">
        <lane id=":n1_3_0" index="0" speed="9.26" length="19.35" shape="198.40,210.40 199.15,205.15 201.40,201.40 205.15,199.15 210.40,198.40"/>
    </edge>
    <edge id=":n1_4" function="internal">
        <lane id=":n1_4_0" index="0" speed="3.65" length="4.67" shape="198.40,210.40 199.20,209.20 200.00,208.80 200.80,209.20 201.60,210.40"/>
    </edge>
    <edge id=":n1_5" function="internal">
        <lane id=":n1_5_0" index="0" speed="6.51" length="9.03" shape="210.40,204.80 207.95,205.15 206.20,206.20 205.15,207.95 204.80,210.40"/>
    </edge>
    <edge id=":n1_6" function="internal">
        <lane id=":n1_6_0" index="0" speed="16.00" length="20.80" shape="210.40,204.80 189.60,204.80"/>
        <lane id=":n1_6_1" index="1" speed="16.00" length="20.80" shape="210.40,201.60 189.60,201.60"/>
    </edge>
    <edge id=":n1_8" function="internal">
        <lane id=":n1_8_0" index="0" speed="9.26" length="19.35" shape="210.40,201.60 205.15,200.85 201.40,198.60 199.15,194.85 198.40,189.60"/>
    </edge>
    <edge id=":n1_9" function="internal">
        <lane id=":n1_9_0" index="0" speed="3.65" length="4.67" shape="210.40,201.60 209.20,200.80 208.80,200.00 209.20,199.20 210.40,198.40"/>
    </edge>
    <edge id=":n1_10" function="internal">
        <lane id=":n1_10_0" index="0" speed="6.51" length="9.03" shape="204.80,189.60 205.15,192.05 206.20,193.80 207.95,194.85 210.40,195.20"/>
    </edge>
    <edge id=":n1_11" function="internal">
        <lane id=":n1_11_0" index="0" speed="16.00" length="20.80" shape="204.80,189.60 204.80,210.40"/>
        <lane id=":n1_11_1" index="1" speed="16.00" length="20.80" shape="201.60,189.60 201.60,210.40"/>
    </edge>
    <edge id=":n1_13" function="internal">
        <lane id=":n1_13_0" index="0" speed="9.26" length="19.35" shape="201.60,189.60 200.85,194.85 198.60,198.60 194.85,200.85 189.60,201.60"/>
    </edge>
    <edge id=":n1_14" function="internal">
        <lane id=":n1_14_0" index="0" speed="3.65" length="4.67" shape="201.60,189.60 200.80,190.80 200.00,191.20 199.20,190.80 198.40,189.60"/>
    </edge>
    <edge id=":n1_15" function="internal">
        <lane id=":n1_15_0" index="0" speed="6.51" length="9.03" shape="189.60,195.20 192.05,194.85 193.80,193.80 194.85,192.05 195.20,189.60"/>
    </edge>
    <edge id=":n1_16" function="internal">
        <lane id=":n1_16_0" index="0" speed="16.00" length="20.80" shape="189.60,195.20 210.40,195.20"/>
        <lane id=":n1_16_1" index="1" speed="16.00" length="20.80" shape="189.60,198.40 210.40,198.40"/>
    </edge>
    <edge id=":n1_18" function="internal">
        <lane id=":n1_18_0" index="0" speed="9.26" length="19.35" shape="189.60,198.40 194.85,199.15 198.60,201.40 200.85,205.15 201.60,210.40"/>
    </edge>
    <edge id=":n1_19" function="internal">
        <lane id=":n1_19_0" index="0" speed="3.65" length="4.67" shape="189.60,198.40 190.80,199.20 191.20,200.00 190.80,200.80 189.60,201.60"/>
    </edge>
    <edge id=":n10_0" function="internal">
        <lane id=":n10_0_0" index="0" speed="6.51" length="9.03" shape="595.20,410.40 594.85,407.95 593.80,406.20 592.05,405.15 589.60,404.80"/>
    </edge>
    <edge id=":n10_1" function="internal">
        <lane id=":n10_1_0" index="0" speed="16.00" length="20.80" shape="595.20,410.40 595.20,389.60"/>
        <lane id=":n10_1_1" index="1" speed="16.00" length="20.80" shape="598.40,410.40 598.40,389.60"/>
    </edge>
    <edge id=":n10_3" function="internal">
        <lane id=":n10_3_0" index="0" speed="9.26" length="19.35" shape="598.40,410.40 599.15,405.15 601.40,401.40 605.15,399.15 610.40,398.40"/>
    </edge>
    <edge id=":n10_4" function="internal">
        <lane id=":n10_4_0" index="0" speed="3.65" length="4.67" shape="598.40,410.40 599.20,409.20 600.00,408.80 600.80,409.20 601.60,410.40"/>
    </edge>
    <edge id=":n10_5" function="internal">
        <lane id=":n10_5_0" index="0" speed="6.51" length="9.03" shape="610.40,404.80 607.95,405.15 606.20,406.20 605.15,407.95 604.80,410.40"/>
    </edge>
    <edge id=":n10_6" function="internal">
        <lane id=":n10_6_0" index="0" speed="16.00" length="20.80" shape="610.40,404.80 589.60,404.80"/>
        <lane id=":n10_6_1" index="1" speed="16.00" length="20.80" shape="610.40,401.60 589.60,401.60"/>
    </edge>
    <edge id=":n10_8" function="internal">
        <lane id=":n10_8_0" index="0" speed="9.26" length="19.35" shape="610.40,401.60 605.15,400.85 601.40,398.60 599.15,394.85 598.40,389.60"/>
    </edge>
    <edge id=":n10_9" function="internal">
        <lane id=":n10_9_0" index="0" speed="3.65" length="4.67" shape="610.40,401.60 609.20,400.80 608.80,400.00 609.20,399.20 610.40,398.40"/>
    </edge>
    <edge id=":n10_10" function="internal">
        <lane id=":n10_10_0" index="0" speed="6.51" length="9.03" shape="604.80,389.60 605.15,392.05 606.20,393.80 607.95,394.85 610.40,395.20"/>
    </edge>
    <edge id=":n10_11" function="internal">
        <lane id=":n10_11_0" index="0" speed="16.00" length="20.80" shape="604.80,389.60 604.80,410.40"/>
        <lane id=":n10_11_1" index="1" speed="16.00" length="20.80" shape="601.60,389.60 601.60,410.40"/>
    </edge>
    <edge id=":n10_13" function="internal">
        <lane id=":n10_13_0" index="0" speed="9.26" length="19.35" shape="601.60,389.60 600.85,394.85 598.60,398.60 594.85,400.85 589.60,401.60"/>
    </edge>
    <edge id=":n10_14" function="internal">
        <lane id=":n10_14_0" index="0" speed="3.65" length="4.67" shape="601.60,389.60 600.80,390.80 600.00,391.20 599.20,390.80 598.40,389.60"/>
    </edge>
    <edge id=":n10_15" function="internal">
        <lane id=":n10_15_0" index="0" speed="6.51" length="9.03" shape="589.60,395.20 592.05,394.85 593.80,393.80 594.85,392.05 595.20,389.60"/>
    </edge>
    <edge id=":n10_16" function="internal">
        <lane id=":n10_16_0" index="0" speed="16.00" length="20.80" shape="589.60,395.20 610.40,395.20"/>
        <lane id=":n10_16_1" index="1" speed="16.00" length="20.80" shape="589.60,398.40 610.40,398.40"/>
    </edge>
    <edge id=":n10_18" function="internal">
        <lane id=":n10_18_0" index="0" speed="9.26" length="19.35" shape="589.60,398.40 594.85,399.15 598.60,401.40 600.85,405.15 601.60,410.40"/>
    </edge>
    <edge id=":n10_19" function="internal">
        <lane id=":n10_19_0" index="0" speed="3.65" length="4.67" shape="589.60,398.40 590.80,399.20 591.20,400.00 590.80,400.80 589.60,401.60"/>
    </edge>
    <edge id=":n11_0" function="internal">
        <lane id=":n11_0_0" index="0" speed="6.51" length="9.03" shape="595.20,610.40 594.85,607.95 593.80,606.20 592.05,605.15 589.60,604.80"/>
    </edge>
    <edge id=":n11_1" function="internal">
        <lane id=":n11_1_0" index="0" speed="16.00" length="20.80" shape="595.20,610.40 595.20,589.60"/>
        <lane id=":n11_1_1" index="1" speed="16.00" length="20.80" shape="598.40,610.40 598.40,589.60"/>
    </edge>
    <edge id=":n11_3" function="internal">
        <lane id=":n11_3_0" index="0" speed="9.26" length="19.35" shape="598.40,610.40 599.15,605.15 601.40,601.40 605.15,599.15 610.40,598.40"/>
    </edge>
    <edge id=":n11_4" function="internal">
        <lane id=":n11_4_0" index="0" speed="3.65" length="4.67" shape="598.40,610.40 599.20,609.20 600.00,608.80 600.80,609.20 601.60,610.40"/>
    </edge>
    <edge id=":n11_5" function="internal">
        <lane id=":n11_5_0" index="0" speed="6.51" length="9.03" shape="610.40,604.80 607.95,605.15 606.20,606.20 605.15,607.95 604.80,610.40"/>
    </edge>
    <edge id=":n11_6" function="internal">
        <lane id=":n11_6_0" index="0" speed="16.00" length="20.80" shape="610.40,604.80 589.60,604.80"/>
        <lane id=":n11_6_1" index="1" speed="16.00" length="20.80" shape="610.40,601.60 589.60,601.60"/>
    </edge>
    <edge id=":n11_8" function="internal">
        <lane id=":n11_8_0" index="0" speed="9.26" length="19.35" shape="610.40,601.60 605.15,600.85 601.40,598.60 599.15,594.85 598.40,589.60"/>
    </edge>
    <edge id=":n11_9" function="internal">
        <lane id=":n11_9_0" index="0" speed="3.65" length="4.67" shape="610.40,601.60 609.20,600.80 608.80,600.00 609.20,599.20 610.40,598.40"/>
    </edge>
    <edge id=":n11_10" function="internal">
        <lane id=":n11_10_0" index="0" speed="6.51" length="9.03" shape="604.80,589.60 605.15,592.05 606.20,593.80 607.95,594.85 610.40,595.20"/>
    </edge>
    <edge id=":n11_11" function="internal">
        <lane id=":n11_11_0" index="0" speed="16.00" length="20.80" shape="604.80,589.60 604.80,610.40"/>
        <lane id=":n11_11_1" index="1" speed="16.00" length="20.80" shape="601.60,589.60 601.60,610.40"/>
    </edge>
    <edge id=":n11_13" function="internal">
        <lane id=":n11_13_0" index="0" speed="9.26" length="19.35" shape="601.60,589.60 600.85,594.85 598.60,598.60 594.85,600.85 589.60,601.60"/>
    </edge>
    <edge id=":n11_14" function="internal">
        <lane id=":n11_14_0" index="0" speed="3.65" length="4.67" shape="601.60,589.60 600.80,590.80 600.00,591.20 599.20,590.80 598.40,589.60"/>
    </edge>
    <edge id=":n11_15" function="internal">
        <lane id=":n11_15_0" index="0" speed="6.51" length="9.03" shape="589.60,595.20 592.05,594.85 593.80,593.80 594.85,592.05 595.20,589.60"/>
    </edge>
    <edge id=":n11_16" function="internal">
        <lane id=":n11_16_0" index="0" speed="16.00" length="20.80" shape="589.60,595.20 610.40,595.20"/>
        <lane id=":n11_16_1" index="1" speed="16.00" length="20.80" shape="589.60,598.40 610.40,598.40"/>
    </edge>
    <edge id=":n11_18" function="internal">
        <lane id=":n11_18_0" index="0" speed="9.26" length="19.35" shape="589.60,598.40 594.85,599.15 598.60,601.40 600.85,605.15 601.60,610.40"/>
    </edge>
    <edge id=":n11_19" function="internal">
        <lane id=":n11_19_0" index="0" speed="3.65" length="4.67" shape="589.60,598.40 590.80,599.20 591.20,600.00 590.80,600.80 589.60,601.60"/>
    </edge>
    <edge id=":n12_0" function="internal">
        <lane id=":n12_0_0" index="0" speed="6.51" length="9.03" shape="595.20,810.40 594.85,807.95 593.80,806.20 592.05,805.15 589.60,804.80"/>
    </edge>
    <edge id=":n12_1" function="internal">
        <lane id=":n12_1_0" index="0" speed="16.00" length="20.80" shape="595.20,810.40 595.20,789.60"/>
        <lane id=":n12_1_1" index="1" speed="16.00" length="20.80" shape="598.40,810.40 598.40,789.60"/>
    </edge>
    <edge id=":n12_3" function="internal">
        <lane id=":n12_3_0" index="0" speed="9.26" length="19.35" shape="598.40,810.40 599.15,805.15 601.40,801.40 605.15,799.15 610.40,798.40"/>
    </edge>
    <edge id=":n12_4" function="internal">
        <lane id=":n12_4_0" index="0" speed="3.65" length="4.67" shape="598.40,810.40 599.20,809.20 600.00,808.80 600.80,809.20 601.60,810.40"/>
    </edge>
    <edge id=":n12_5" function="internal">
        <lane id=":n12_5_0" index="0" speed="6.51" length="9.03" shape="610.40,804.80 607.95,805.15 606.20,806.20 605.15,807.95 604.80,810.40"/>
    </edge>
    <edge id=":n12_6" function="internal">
        <lane id=":n12_6_0" index="0" speed="16.00" length="20.80" shape="610.40,804.80 589.60,804.80"/>
        <lane id=":n12_6_1" index="1" speed="16.00" length="20.80" shape="610.40,801.60 589.60,801.60"/>
    </edge>
    <edge id=":n12_8" function="internal">
        <lane id=":n12_8_0" index="0" speed="9.26" length="19.35" shape="610.40,801.60 605.15,800.85 601.40,798.60 599.15,794.85 598.40,789.60"/>
    </edge>
    <edge id=":n12_9" function="internal">
        <lane id=":n12_9_0" index="0" speed="3.65" length="4.67" shape="610.40,801.60 609.20,800.80 608.80,800.00 609.20,799.20 610.40,798.40"/>
    </edge>
    <edge id=":n12_10" function="internal">
        <lane id=":n12_10_0" index="0" speed="6.51" length="9.03" shape="604.80,789.60 605.15,792.05 606.20,793.80 607.95,794.85 610.40,795.20"/>
    </edge>
    <edge id=":n12_11" function="internal">
        <lane id=":n12_11_0" index="0" speed="16.00" length="20.80" shape="604.80,789.60 604.80,810.40"/>
        <lane id=":n12_11_1" index="1" speed="16.00" length="20.80" shape="601.60,789.60 601.60,810.40"/>
    </edge>
    <edge id=":n12_13" function="internal">
        <lane id=":n12_13_0" index="0" speed="9.26" length="19.35" shape="601.60,789.60 600.85,794.85 598.60,798.60 594.85,800.85 589.60,801.60"/>
    </edge>
    <edge id=":n12_14" function="internal">
        <lane id=":n12_14_0" index="0" speed="3.65" length="4.67" shape="601.60,789.60 600.80,790.80 600.00,791.20 599.20,790.80 598.40,789.60"/>
    </edge>
    <edge id=":n12_15" function="internal">
        <lane id=":n12_15_0" index="0" speed="6.51" length="9.03" shape="589.60,795.20 592.05,794.85 593.80,793.80 594.85,792.05 595.20,789.60"/>
    </edge>
    <edge id=":n12_16" function="internal">
        <lane id=":n12_16_0" index="0" speed="16.00" length="20.80" shape="589.60,795.20 610.40,795.20"/>
        <lane id=":n12_16_1" index="1" speed="16.00" length="20.80" shape="589.60,798.40 610.40,798.40"/>
    </edge>
    <edge id=":n12_18" function="internal">
        <lane id=":n12_18_0" index="0" speed="9.26" length="19.35" shape="589.60,798.40 594.85,799.15 598.60,801.40 600.85,805.15 601.60,810.40"/>
    </edge>
    <edge id=":n12_19" function="internal">
        <lane id=":n12_19_0" index="0" speed="3.65" length="4.67" shape="589.60,798.40 590.80,799.20 591.20,800.00 590.80,800.80 589.60,801.60"/>
    </edge>
    <edge id=":n13_0" function="internal">
        <lane id=":n13_0_0" index="0" speed="6.51" length="9.03" shape="795.20,210.40 794.85,207.95 793.80,206.20 792.05,205.15 789.60,204.80"/>
    </edge>
    <edge id=":n13_1" function="internal">
        <lane id=":n13_1_0" index="0" speed="16.00" length="20.80" shape="795.20,210.40 795.20,189.60"/>
        <lane id=":n13_1_1" index="1" speed="16.00" length="20.80" shape="798.40,210.40 798.40,189.60"/>
    </edge>
    <edge id=":n13_3" function="internal">
        <lane id=":n13_3_0" index="0" speed="9.26" length="19.35" shape="798.40,210.40 799.15,205.15 801.40,201.40 805.15,199.15 810.40,198.40"/>
    </edge>
    <edge id=":n13_4" function="internal">
        <lane id=":n13_4_0" index="0" speed="3.65" length="4.67" shape="798.40,210.40 799.20,209.20 800.00,208.80 800.80,209.20 801.60,210.40"/>
    </edge>
    <edge id=":n13_5" function="internal">
        <lane id=":n13_5_0" index="0" speed="6.51" length="9.03" shape="810.40,204.80 807.95,205.15 806.20,206.20 805.15,207.95 804.80,210.40"/>
    </edge>
    <edge id=":n13_6" function="internal">
        <lane id=":n13_6_0" index="0" speed="16.00" length="20.80" shape="810.40,204.80 789.60,204.80"/>
        <lane id=":n13_6_1" index="1" speed="16.00" length="20.80" shape="810.40,201.60 789.60,201.60"/>
    </edge>
    <edge id=":n13_8" function="internal">
        <lane id=":n13_8_0" index="0" speed="9.26" length="19.35" shape="810.40,201.60 805.15,200.85 801.40,198.60 799.15,194.85 798.40,189.60"/>
    </edge>
    <edge id=":n13_9" function="internal">
        <lane id=":n13_9_0" index="0" speed="3.65" length="4.67" shape="810.40,201.60 809.20,200.80 808.80,200.00 809.20,199.20 810.40,198.40"/>
    </edge>
    <edge id=":n13_10" function="internal">
        <lane id=":n13_10_0" index="0" speed="6.51" length="9.03" shape="804.80,189.60 805.15,192.05 806.20,193.80 807.95,194.85 810.40,195.20"/>
    </edge>
    <edge id=":n13_11" function="internal">
        <lane id=":n13_11_0" index="0" speed="16.00" length="20.80" shape="804.80,189.60 804.80,210.40"/>
        <lane id=":n13_11_1" index="1" speed="16.00" length="20.80" shape="801.60,189.60 801.60,210.40"/>
    </edge>
    <edge id=":n13_13" function="internal">
        <lane id=":n13_13_0" index="0" speed="9.26" length="19.35" shape="801.60,189.60 800.85,194.85 798.60,198.60 794.85,200.85 789.60,201.60"/>
    </edge>
    <edge id=":n13_14" function="internal">
        <lane id=":n13_14_0" index="0" speed="3.65" length="4.67" shape="801.60,189.60 800.80,190.80 800.00,191.20 799.20,190.80 798.40,189.60"/>
    </edge>
    <edge id=":n13_15" function="internal">
        <lane id=":n13_15_0" index="0" speed="6.51" length="9.03" shape="789.60,195.20 792.05,194.85 793.80,193.80 794.85,192.05 795.20,189.60"/>
    </edge>
    <edge id=":n13_16" function="internal">
        <lane id=":n13_16_0" index="0" speed="16.00" length="20.80" shape="789.60,195.20 810.40,195.20"/>
        <lane id=":n13_16_1" index="1" speed="16.00" length="20.80" shape="789.60,198.40 810.40,198.40"/>
    </edge>
    <edge id=":n13_18" function="internal">
        <lane id=":n13_18_0" index="0" speed="9.26" length="19.35" shape="789.60,198.40 794.85,199.15 798.60,201.40 800.85,205.15 801.60,210.40"/>
    </edge>
    <edge id=":n13_19" function="internal">
        <lane id=":n13_19_0" index="0" speed="3.65" length="4.67" shape="789.60,198.40 790.80,199.20 791.20,200.00 790.80,200.80 789.60,201.60"/>
    </edge>
    <edge id=":n14_0" function="internal">
        <lane id=":n14_0_0" index="0" speed="6.51" length="9.03" shape="795.20,410.40 794.85,407.95 793.80,406.20 792.05,405.15 789.60,404.80"/>
    </edge>
    <edge id=":n14_1" function="internal">
        <lane id=":n14_1_0" index="0" speed="16.00" length="20.80" shape="795.20,410.40 795.20,389.60"/>
        <lane id=":n14_1_1" index="1" speed="16.00" length="20.80" shape="798.40,410.40 798.40,389.60"/>
    </edge>
    <edge id=":n14_3" function="internal">
        <lane id=":n14_3_0" index="0" speed="9.26" length="19.35" shape="798.40,410.40 799.15,405.15 801.40,401.40 805.15,399.15 810.40,398.40"/>
    </edge>
    <edge id=":n14_4" function="internal">
        <lane id=":n14_4_0" index="0" speed="3.65" length="4.67" shape="798.40,410.40 799.20,409.20 800.00,408.80 800.80,409.20 801.60,410.40"/>
    </edge>
    <edge id=":n14_5" function="internal">
        <lane id=":n14_5_0" index="0" speed="6.51" length="9.03" shape="810.40,404.80 807.95,405.15 806.20,406.20 805.15,407.95 804.80,410.40"/>
    </edge>
    <edge id=":n14_6" function="internal">
        <lane id=":n14_6_0" index="0" speed="16.00" length="20.80" shape="810.40,404.80 789.60,404.80"/>
        <lane id=":n14_6_1" index="1" speed="16.00" length="20.80" shape="810.40,401.60 789.60,401.60"/>
    </edge>
    <edge id=":n14_8" function="internal">
        <lane id=":n14_8_0" index="0" speed="9.26" length="19.35" shape="810.40,401.60 805.15,400.85 801.40,398.60 799.15,394.85 798.40,389.60"/>
    </edge>
    <edge id=":n14_9" function="internal">
        <lane id=":n14_9_0" index="0" speed="3.65" length="4.67" shape="810.40,401.60 809.20,400.80 808.80,400.00 809.20,399.20 810.40,398.40"/>
    </edge>
    <edge id=":n14_10" function="internal">
        <lane id=":n14_10_0" index="0" speed="6.51" length="9.03" shape="804.80,389.60 805.15,392.05 806.20,393.80 807.95,394.85 810.40,395.20"/>
    </edge>
    <edge id=":n14_11" function="internal">
        <lane id=":n14_11_0" index="0" speed="16.00" length="20.80" shape="804.80,389.60 804.80,410.40"/>
        <lane id=":n14_11_1" index="1" speed="16.00" length="20.80" shape="801.60,389.60 801.60,410.40"/>
    </edge>
    <edge id=":n14_13" function="internal">
        <lane id=":n14_13_0" index="0" speed="9.26" length="19.35" shape="801.60,389.60 800.85,394.85 798.60,398.60 794.85,400.85 789.60,401.60"/>
    </edge>
    <edge id=":n14_14" function="internal">
        <lane id=":n14_14_0" index="0" speed="3.65" length="4.67" shape="801.60,389.60 800.80,390.80 800.00,391.20 799.20,390.80 798.40,389.60"/>
    </edge>
    <edge id=":n14_15" function="internal">
        <lane id=":n14_15_0" index="0" speed="6.51" length="9.03" shape="789.60,395.20 792.05,394.85 793.80,393.80 794.85,392.05 795.20,389.60"/>
    </edge>
    <edge id=":n14_16" function="internal">
        <lane id=":n14_16_0" index="0" speed="16.00" length="20.80" shape="789.60,395.20 810.40,395.20"/>
        <lane id=":n14_16_1" index="1" speed="16.00" length="20.80" shape="789.60,398.40 810.40,398.40"/>
    </edge>
    <edge id=":n14_18" function="internal">
        <lane id=":n14_18_0" index="0" speed="9.26" length="19.35" shape="789.60,398.40 794.85,399.15 798.60,401.40 800.85,405.15 801.60,410.40"/>
    </edge>
    <edge id=":n14_19" function="internal">
        <lane id=":n14_19_0" index="0" speed="3.65" length="4.67" shape="789.60,398.40 790.80,399.20 791.20,400.00 790.80,400.80 789.60,401.60"/>
    </edge>
    <edge id=":n15_0" function="internal">
        <lane id=":n15_0_0" index="0" speed="6.51" length="9.03" shape="795.20,610.40 794.85,607.95 793.80,606.20 792.05,605.15 789.60,604.80"/>
    </edge>
    <edge id=":n15_1" function="internal">
        <lane id=":n15_1_0" index="0" speed="16.00" length="20.80" shape="795.20,610.40 795.20,589.60"/>
        <lane id=":n15_1_1" index="1" speed="16.00" length="20.80" shape="798.40,610.40 798.40,589.60"/>
    </edge>
    <edge id=":n15_3" function="internal">
        <lane id=":n15_3_0" index="0" speed="9.26" length="19.35" shape="798.40,610.40 799.15,605.15 801.40,601.40 805.15,599.15 810.40,598.40"/>
    </edge>
    <edge id=":n15_4" function="internal">
        <lane id=":n15_4_0" index="0" speed="3.65" length="4.67" shape="798.40,610.40 799.20,609.20 800.00,608.80 800.80,609.20 801.60,610.40"/>
    </edge>
    <edge id=":n15_5" function="internal">
        <lane id=":n15_5_0" index="0" speed="6.51" length="9.03" shape="810.40,604.80 807.95,605.15 806.20,606.20 805.15,607.95 804.80,610.40"/>
    </edge>
    <edge id=":n15_6" function="internal">
        <lane id=":n15_6_0" index="0" speed="16.00" length="20.80" shape="810.40,604.80 789.60,604.80"/>
        <lane id=":n15_6_1" index="1" speed="16.00" length="20.80" shape="810.40,601.60 789.60,601.60"/>
    </edge>
    <edge id=":n15_8" function="internal">
        <lane id=":n15_8_0" index="0" speed="9.26" length="19.35" shape="810.40,601.60 805.15,600.85 801.40,598.60 799.15,594.85 798.40,589.60"/>
    </edge>
    <edge id=":n15_9" function="internal">
        <lane id=":n15_9_0" index="0" speed="3.65" length="4.67" shape="810.40,601.60 809.20,600.80 808.80,600.00 809.20,599.20 810.40,598.40"/>
    </edge>
    <edge id=":n15_10" function="internal">
        <lane id=":n15_10_0" index="0" speed="6.51" length="9.03" shape="804.80,589.60 805.15,592.05 806.20,593.80 807.95,594.85 810.40,595.20"/>
    </edge>
    <edge id=":n15_11" function="internal">
        <lane id=":n15_11_0" index="0" speed="16.00" length="20.80" shape="804.80,589.60 804.80,610.40"/>
        <lane id=":n15_11_1" index="1" speed="16.00" length="20.80" shape="801.60,589.60 801.60,610.40"/>
    </edge>
    <edge id=":n15_13" function="internal">
        <lane id=":n15_13_0" index="0" speed="9.26" length="19.35" shape="801.60,589.60 800.85,594.85 798.60,598.60 794.85,600.85 789.60,601.60"/>
    </edge>
    <edge id=":n15_14" function="internal">
        <lane id=":n15_14_0" index="0" speed="3.65" length="4.67" shape="801.60,589.60 800.80,590.80 800.00,591.20 799.20,590.80 798.40,589.60"/>
    </edge>
    <edge id=":n15_15" function="internal">
        <lane id=":n15_15_0" index="0" speed="6.51" length="9.03" shape="789.60,595.20 792.05,594.85 793.80,593.80 794.85,592.05 795.20,589.60"/>
    </edge>
    <edge id=":n15_16" function="internal">
        <lane id=":n15_16_0" index="0" speed="16.00" length="20.80" shape="789.60,595.20 810.40,595.20"/>
        <lane id=":n15_16_1" index="1" speed="16.00" length="20.80" shape="789.60,598.40 810.40,598.40"/>
    </edge>
    <edge id=":n15_18" function="internal">
        <lane id=":n15_18_0" index="0" speed="9.26" length="19.35" shape="789.60,598.40 794.85,599.15 798.60,601.40 800.85,605.15 801.60,610.40"/>
    </edge>
    <edge id=":n15_19" function="internal">
        <lane id=":n15_19_0" index="0" speed="3.65" length="4.67" shape="789.60,598.40 790.80,599.20 791.20,600.00 790.80,600.80 789.60,601.60"/>
    </edge>
    <edge id=":n16_0" function="internal">
        <lane id=":n16_0_0" index="0" speed="6.51" length="9.03" shape="795.20,810.40 794.85,807.95 793.80,806.20 792.05,805.15 789.60,804.80"/>
    </edge>
    <edge id=":n16_1" function="internal">
        <lane id=":n16_1_0" index="0" speed="16.00" length="20.80" shape="795.20,810.40 795.20,789.60"/>
        <lane id=":n16_1_1" index="1" speed="16.00" length="20.80" shape="798.40,810.40 798.40,789.60"/>
    </edge>
    <edge id=":n16_3" function="internal">
        <lane id=":n16_3_0" index="0" speed="9.26" length="19.35" shape="798.40,810.40 799.15,805.15 801.40,801.40 805.15,799.15 810.40,798.40"/>
    </edge>
    <edge id=":n16_4" function="internal">
        <lane id=":n16_4_0" index="0" speed="3.65" length="4.67" shape="798.40,810.40 799.20,809.20 800.00,808.80 800.80,809.20 801.60,810.40"/>
    </edge>
    <edge id=":n16_5" function="internal">
        <lane id=":n16_5_0" index="0" speed="6.51" length="9.03" shape="810.40,804.80 807.95,805.15 806.20,806.20 805.15,807.95 804.80,810.40"/>
    </edge>
    <edge id=":n16_6" function="internal">
        <lane id=":n16_6_0" index="0" speed="16.00" length="20.80" shape="810.40,804.80 789.60,804.80"/>
        <lane id=":n16_6_1" index="1" speed="16.00" length="20.80" shape="810.40,801.60 789.60,801.60"/>
    </edge>
    <edge id=":n16_8" function="internal">
        <lane id=":n16_8_0" index="0" speed="9.26" length="19.35" shape="810.40,801.60 805.15,800.85 801.40,798.60 799.15,794.85 798.40,789.60"/>
    </edge>
    <edge id=":n16_9" function="internal">
        <lane id=":n16_9_0" index="0" speed="3.65" length="4.67" shape="810.40,801.60 809.20,800.80 808.80,800.00 809.20,799.20 810.40,798.40"/>
    </edge>
    <edge id=":n16_10" function="internal">
        <lane id=":n16_10_0" index="0" speed="6.51" length="9.03" shape="804.80,789.60 805.15,792.05 806.20,793.80 807.95,794.85 810.40,795.20"/>
    </edge>
    <edge id=":n16_11" function="internal">
        <lane id=":n16_11_0" index="0" speed="16.00" length="20.80" shape="804.80,789.60 804.80,810.40"/>
        <lane id=":n16_11_1" index="1" speed="16.00" length="20.80" shape="801.60,789.60 801.60,810.40"/>
    </edge>
    <edge id=":n16_13" function="internal">
        <lane id=":n16_13_0" index="0" speed="9.26" length="19.35" shape="801.60,789.60 800.85,794.85 798.60,798.60 794.85,800.85 789.60,801.60"/>
    </edge>
    <edge id=":n16_14" function="internal">
        <lane id=":n16_14_0" index="0" speed="3.65" length="4.67" shape="801.60,789.60 800.80,790.80 800.00,791.20 799.20,790.80 798.40,789.60"/>
    </edge>
    <edge id=":n16_15" function="internal">
        <lane id=":n16_15_0" index="0" speed="6.51" length="9.03" shape="789.60,795.20 792.05,794.85 793.80,793.80 794.85,792.05 795.20,789.60"/>
    </edge>
    <edge id=":n16_16" function="internal">
        <lane id=":n16_16_0" index="0" speed="16.00" length="20.80" shape="789.60,795.20 810.40,795.20"/>
        <lane id=":n16_16_1" index="1" speed="16.00" length="20.80" shape="789.60,798.40 810.40,798.40"/>
    </edge>
    <edge id=":n16_18" function="internal">
        <lane id=":n16_18_0" index="0" speed="9.26" length="19.35" shape="789.60,798.40 794.85,799.15 798.60,801.40 800.85,805.15 801.60,810.40"/>
    </edge>
    <edge id=":n16_19" function="internal">
        <lane id=":n16_19_0" index="0" speed="3.65" length="4.67" shape="789.60,798.40 790.80,799.20 791.20,800.00 790.80,800.80 789.60,801.60"/>
    </edge>
    <edge id=":n17_0" function="internal">
        <lane id=":n17_0_0" index="0" speed="3.65" length="4.67" shape="0.00,201.60 -1.20,200.80 -1.60,200.00 -1.20,199.20 0.00,198.40"/>
    </edge>
    <edge id=":n18_0" function="internal">
        <lane id=":n18_0_0" index="0" speed="3.65" length="4.67" shape="0.00,401.60 -1.20,400.80 -1.60,400.00 -1.20,399.20 0.00,398.40"/>
    </edge>
    <edge id=":n19_0" function="internal">
        <lane id=":n19_0_0" index="0" speed="3.65" length="4.67" shape="0.00,601.60 -1.20,600.80 -1.60,600.00 -1.20,599.20 0.00,598.40"/>
    </edge>
    <edge id=":n2_0" function="internal">
        <lane id=":n2_0_0" index="0" speed="6.51" length="9.03" shape="195.20,410.40 194.85,407.95 193.80,406.20 192.05,405.15 189.60,404.80"/>
    </edge>
    <edge id=":n2_1" function="internal">
        <lane id=":n2_1_0" index="0" speed="16.00" length="20.80" shape="195.20,410.40 195.20,389.60"/>
        <lane id=":n2_1_1" index="1" speed="16.00" length="20.80" shape="198.40,410.40 198.40,389.60"/>
    </edge>
    <edge id=":n2_3" function="internal">
        <lane id=":n2_3_0" index="0" speed="9.26" length="19.35" shape="198.40,410.40 199.15,405.15 201.40,401.40 205.15,399.15 210.40,398.40"/>
    </edge>