<nodes>
    <!--Intersection nodes-->
    <node id="n1" x="200" y="200" type="unregulated"/>
    <node id="n2" x="200" y="400" type="unregulated"/>
    <node id="n3" x="200" y="600" type="unregulated"/>
    <node id="n4" x="200" y="800" type="unregulated"/>
    <node id="n5" x="400" y="200" type="unregulated"/> 
    <node id="n6" x="400" y="400" type="unregulated"/>
    <node id="n7" x="400" y="600" type="unregulated"/>
    <node id="n8" x="400" y="800" type="unregulated"/>
    <node id="n9" x="600" y="200" type="unregulated"/>
    <node id="n10" x="600" y="400" type="unregulated"/>
    <node id="n11" x="600" y="600" type="unregulated"/>
    <node id="n12" x="600" y="800" type="unregulated"/>
    <node id="n13" x="800" y="200" type="unregulated"/>
    <node id="n14" x="800" y="400" type="unregulated"/>
    <node id="n15" x="800" y="600" type="unregulated"/>
    <node id="n16" x="800" y="800" type="unregulated"/>
    <!--Entry nodes-->
    <node id="n17" x="0" y="200" type="unregulated"/>
    <node id="n18" x="0" y="400" type="unregulated"/>
    <node id="n19" x="0" y="600" type="unregulated"/>
    <node id="n20" x="0" y="800" type="unregulated"/>
    <node id="n21" x="200" y="0" type="unregulated"/> 
    <node id="n22" x="200" y="1000" type="unregulated"/>
    <node id="n23" x="400" y="0" type="unregulated"/>
    <node id="n24" x="400" y="1000" type="unregulated"/>
    <node id="n25" x="600" y="0" type="unregulated"/>
    <node id="n26" x="600" y="1000" type="unregulated"/>
    <node id="n27" x="800" y="0" type="unregulated"/>
    <node id="n28" x="800" y="1000" type="unregulated"/>
    <node id="n29" x="1000" y="200" type="unregulated"/>
    <node id="n30" x="1000" y="400" type="unregulated"/>
    <node id="n31" x="1000" y="600" type="unregulated"/>
    <node id="n32" x="1000" y="800" type="unregulated"/>
</nodes>