<routes>
    <vType accel="1.0" decel="5.0" id="Car" jmIgnoreKeepClearTime="100.0" maxSpeed="30" length="3" />
        
    <!--emergencyDecel="0.0"-->
    <route id="route12" edges="Road1 Road2_out"/> <!-- Geradeaus-->
    <route id="route13" edges="Road1 Road3_out"/>
    <route id="route14" edges="Road1 Road4_out"/>

    <route id="route21" edges="Road2 Road1_out"/> <!-- Geradeaus-->
    <route id="route23" edges="Road2 Road3_out"/>
    <route id="route24" edges="Road2 Road4_out"/> 

    <route id="route31" edges="Road3 Road1_out"/> 
    <route id="route32" edges="Road3 Road2_out"/> 
    <route id="route34" edges="Road3 Road4_out"/> <!-- Geradeaus-->

    <route id="route41" edges="Road4 Road1_out"/>
    <route id="route42" edges="Road4 Road2_out"/>
    <route id="route43" edges="Road4 Road3_out"/> <!-- Geradeaus-->





    <!--<vehicle depart ="0" id="car13" route="route13" type="Car"/>
    <vehicle depart ="0" id="car14" route="route14" type="Car"/>
    <vehicle depart ="0" id="car23" route="route23" type="Car"/>
    <vehicle depart ="0" id="car24" route="route24" type="Car"/>
    <vehicle depart ="0" id="car31" route="route31" type="Car"/>
    <vehicle depart ="0" id="car32" route="route32" type="Car"/>-->
    <vehicle depart ="0" id="car41" route="route41" type="Car"/>
    <vehicle depart ="0" id="car42" route="route42" type="Car"/>
    <!--<vehicle depart ="7" id="car6" route="route21" type="Car"/>
    <vehicle depart ="10" id="car7" route="route34" type="Car"/>
    <vehicle depart ="10" id="car8" route="route43" type="Car"/>
    <vehicle depart ="12" id="car9" route="route12" type="Car"/>
    <vehicle depart ="14" id="car10" route="route21" type="Car"/>
    <vehicle depart ="15" id="car11" route="route34" type="Car"/>
    <vehicle depart ="15" id="car12" route="route43" type="Car"/>-->

<!--
    <vehicle depart ="5" id="car1" route="route0" type="Car"/>
    <vehicle depart ="10" id="car2" route="route0" type="Car"/>
    <vehicle depart ="15" id="car3" route="route4" type="Car"/>
    <vehicle depart ="16" id="car4" route="route4" type="Car"/>
    <vehicle depart ="17" id="car5" route="route5" type="Car"/>
    <vehicle depart ="18" id="car6" route="route5" type="Car"/>
    <vehicle depart ="19" id="car7" route="route8" type="Car"/>
    <vehicle depart ="20" id="car8" route="route5" type="Car"/>
    <vehicle depart ="21" id="car9" route="route0" type="Car"/>
    <vehicle depart ="22" id="car10" route="route8" type="Car"/>
    <vehicle depart ="30" id="car11" route="route5" type="Car"/>
    <vehicle depart ="32" id="car12" route="route4" type="Car"/>
-->

</routes>