<routes>
    <vType accel="1.0" decel="5.0" id="Car" jmIgnoreKeepClearTime="100.0" maxSpeed="30" length="3" />
        
    <!--emergencyDecel="0.0"-->
    <trip id="0" depart="0" from="h-y2000-5-w" to="h-y2000-5-e"/>
<trip id="1" depart="1" from="h-y500-1-e" to="v-x2000-5-n"/>
<trip id="2" depart="2" from="h-y1000-5-w" to="v-x1500-1-s"/>
<trip id="3" depart="3" from="h-y500-1-e" to="v-x1000-5-n"/>
<trip id="4" depart="4" from="h-y1500-5-w" to="v-x500-5-n"/>
<trip id="5" depart="5" from="v-x1500-1-n" to="h-y500-5-e"/>
<trip id="6" depart="6" from="h-y1500-5-w" to="v-x1000-5-n"/>
<trip id="7" depart="7" from="v-x1000-1-n" to="h-y1500-5-e"/>
<trip id="8" depart="8" from="h-y1000-5-w" to="v-x1000-5-n"/>
<trip id="9" depart="9" from="v-x500-1-n" to="h-y500-1-w"/>
<trip id="10" depart="10" from="h-y2000-1-e" to="v-x1000-5-n"/>
<trip id="11" depart="11" from="h-y1000-1-e" to="v-x2000-1-s"/>
<trip id="12" depart="12" from="v-x500-1-n" to="h-y1500-5-e"/>
<trip id="13" depart="13" from="h-y1500-5-w" to="v-x1000-1-s"/>
<trip id="14" depart="14" from="v-x2000-1-n" to="h-y1500-1-w"/>
<trip id="15" depart="15" from="v-x1000-1-n" to="h-y500-1-w"/>
<trip id="16" depart="16" from="v-x1500-1-n" to="v-x500-5-n"/>
<trip id="17" depart="17" from="h-y1000-1-e" to="v-x2000-5-n"/>
<trip id="18" depart="18" from="h-y1500-1-e" to="h-y1000-1-w"/>
<trip id="19" depart="19" from="h-y2000-1-e" to="h-y1000-5-e"/>
<trip id="20" depart="20" from="h-y1000-1-e" to="h-y1500-5-e"/>
<trip id="21" depart="21" from="h-y2000-5-w" to="h-y1500-5-e"/>
<trip id="22" depart="22" from="h-y1000-1-e" to="v-x1500-1-s"/>
<trip id="23" depart="23" from="v-x2000-5-s" to="v-x2000-1-s"/>
<trip id="24" depart="24" from="h-y2000-5-w" to="h-y500-1-w"/>
<trip id="25" depart="25" from="v-x500-5-s" to="h-y1000-1-w"/>
<trip id="26" depart="26" from="v-x500-5-s" to="v-x1000-5-n"/>
<trip id="27" depart="27" from="h-y1000-1-e" to="v-x500-1-s"/>
<trip id="28" depart="28" from="h-y1500-1-e" to="v-x500-1-s"/>
<trip id="29" depart="29" from="h-y1000-5-w" to="v-x500-1-s"/>
<trip id="30" depart="30" from="v-x1500-5-s" to="v-x2000-5-n"/>
<trip id="31" depart="31" from="v-x1500-1-n" to="h-y500-1-w"/>
<trip id="32" depart="32" from="h-y2000-1-e" to="h-y1500-5-e"/>
<trip id="33" depart="33" from="h-y500-1-e" to="h-y500-5-e"/>
<trip id="34" depart="34" from="h-y1000-5-w" to="h-y500-1-w"/>
<trip id="35" depart="35" from="v-x2000-1-n" to="v-x1500-5-n"/>
<trip id="36" depart="36" from="v-x500-1-n" to="h-y2000-5-e"/>
<trip id="37" depart="37" from="v-x1000-1-n" to="v-x2000-5-n"/>
<trip id="38" depart="38" from="v-x1000-5-s" to="v-x1000-5-n"/>
<trip id="39" depart="39" from="h-y500-1-e" to="h-y1500-5-e"/>
<trip id="40" depart="40" from="v-x2000-1-n" to="h-y1000-1-w"/>
<trip id="41" depart="41" from="v-x1000-1-n" to="h-y1000-1-w"/>
<trip id="42" depart="42" from="v-x2000-5-s" to="h-y2000-1-w"/>
<trip id="43" depart="43" from="v-x2000-5-s" to="v-x1500-1-s"/>
<trip id="44" depart="44" from="h-y1500-5-w" to="h-y500-1-w"/>
<trip id="45" depart="45" from="v-x2000-1-n" to="h-y1500-5-e"/>
<trip id="46" depart="46" from="h-y500-1-e" to="h-y1000-5-e"/>
<trip id="47" depart="47" from="v-x1000-5-s" to="v-x1000-5-n"/>
<trip id="48" depart="48" from="v-x500-5-s" to="h-y500-1-w"/>
<trip id="49" depart="49" from="h-y1500-1-e" to="h-y1500-5-e"/>


</routes>