<routes>
    <vType accel="1.0" decel="5.0" id="Car" jmIgnoreKeepClearTime="100.0" maxSpeed="30" length="3" />
        
    <!--emergencyDecel="0.0"-->
    <trip id="0" depart="0" from="n19-n54" to="n53-n38"/>
<trip id="1" depart="2" from="n37-n26" to="n57-n43"/>
<trip id="2" depart="2" from="n40-n29" to="n57-n43"/>
<trip id="3" depart="3" from="n43-n57" to="n5-n23"/>
<trip id="4" depart="6" from="n43-n57" to="n54-n19"/>
<trip id="5" depart="6" from="n43-n57" to="n54-n19"/>
<trip id="6" depart="9" from="n44-n32" to="n4-n20"/>
<trip id="7" depart="11" from="n23-n5" to="n54-n19"/>
<trip id="8" depart="12" from="n19-n54" to="n51-n27"/>
<trip id="9" depart="15" from="n20-n4" to="n51-n27"/>
<trip id="10" depart="16" from="n39-n33" to="n5-n23"/>
<trip id="11" depart="19" from="n19-n54" to="n33-n45"/>
<trip id="12" depart="21" from="n19-n54" to="n29-n41"/>
<trip id="13" depart="23" from="n19-n54" to="n53-n38"/>
<trip id="14" depart="25" from="n27-n51" to="n54-n19"/>
<trip id="15" depart="28" from="n38-n53" to="n54-n19"/>
<trip id="16" depart="30" from="n27-n51" to="n57-n43"/>
<trip id="17" depart="34" from="n37-n26" to="n51-n27"/>
<trip id="18" depart="37" from="n19-n54" to="n57-n43"/>
<trip id="19" depart="39" from="n38-n53" to="n54-n19"/>
<trip id="20" depart="40" from="n36-n24" to="n33-n45"/>
<trip id="21" depart="41" from="n43-n57" to="n54-n19"/>
<trip id="22" depart="42" from="n43-n57" to="n53-n38"/>
<trip id="23" depart="43" from="n27-n51" to="n22-n35"/>
<trip id="24" depart="48" from="n37-n26" to="n22-n34"/>
<trip id="25" depart="52" from="n43-n57" to="n53-n38"/>
<trip id="26" depart="53" from="n27-n51" to="n54-n19"/>
<trip id="27" depart="54" from="n19-n54" to="n33-n45"/>
<trip id="28" depart="54" from="n19-n54" to="n5-n23"/>
<trip id="29" depart="56" from="n17-n1" to="n57-n43"/>
<trip id="30" depart="57" from="n40-n29" to="n9-n25"/>
<trip id="31" depart="59" from="n27-n51" to="n54-n19"/>
<trip id="32" depart="62" from="n43-n57" to="n54-n19"/>
<trip id="33" depart="63" from="n19-n54" to="n51-n27"/>
<trip id="34" depart="64" from="n41-n29" to="n29-n40"/>
<trip id="35" depart="67" from="n38-n53" to="n57-n43"/>
<trip id="36" depart="68" from="n43-n57" to="n26-n37"/>
<trip id="37" depart="69" from="n43-n57" to="n51-n27"/>
<trip id="38" depart="69" from="n27-n51" to="n54-n19"/>
<trip id="39" depart="69" from="n19-n54" to="n51-n27"/>
<trip id="40" depart="72" from="n38-n53" to="n54-n19"/>
<trip id="41" depart="72" from="n43-n57" to="n54-n19"/>
<trip id="42" depart="84" from="n36-n24" to="n53-n38"/>
<trip id="43" depart="86" from="n43-n57" to="n53-n38"/>
<trip id="44" depart="90" from="n27-n51" to="n33-n45"/>
<trip id="45" depart="91" from="n27-n51" to="n54-n19"/>
<trip id="46" depart="93" from="n40-n29" to="n54-n19"/>
<trip id="47" depart="96" from="n38-n53" to="n5-n23"/>
<trip id="48" depart="98" from="n19-n54" to="n53-n38"/>
<trip id="49" depart="99" from="n38-n53" to="n51-n27"/>
<trip id="50" depart="103" from="n43-n57" to="n51-n27"/>
<trip id="51" depart="104" from="n40-n29" to="n53-n38"/>
<trip id="52" depart="104" from="n43-n57" to="n26-n37"/>
<trip id="53" depart="106" from="n27-n51" to="n53-n38"/>
<trip id="54" depart="111" from="n35-n22" to="n1-n17"/>
<trip id="55" depart="115" from="n38-n53" to="n57-n43"/>
<trip id="56" depart="120" from="n43-n57" to="n33-n45"/>
<trip id="57" depart="124" from="n27-n51" to="n53-n38"/>
<trip id="58" depart="124" from="n27-n51" to="n57-n43"/>
<trip id="59" depart="125" from="n43-n57" to="n51-n27"/>
<trip id="60" depart="127" from="n41-n29" to="n57-n43"/>
<trip id="61" depart="128" from="n17-n1" to="n54-n19"/>
<trip id="62" depart="128" from="n43-n57" to="n53-n38"/>
<trip id="63" depart="129" from="n43-n57" to="n54-n19"/>
<trip id="64" depart="130" from="n27-n51" to="n57-n43"/>
<trip id="65" depart="131" from="n19-n54" to="n51-n27"/>
<trip id="66" depart="132" from="n23-n5" to="n22-n34"/>
<trip id="67" depart="133" from="n27-n51" to="n22-n34"/>
<trip id="68" depart="137" from="n19-n54" to="n57-n43"/>
<trip id="69" depart="138" from="n18-n2" to="n54-n19"/>
<trip id="70" depart="140" from="n27-n51" to="n57-n43"/>
<trip id="71" depart="140" from="n19-n54" to="n53-n38"/>
<trip id="72" depart="148" from="n19-n54" to="n53-n38"/>
<trip id="73" depart="153" from="n38-n53" to="n5-n23"/>
<trip id="74" depart="154" from="n43-n57" to="n4-n20"/>
<trip id="75" depart="154" from="n43-n57" to="n32-n44"/>
<trip id="76" depart="155" from="n43-n57" to="n22-n35"/>
<trip id="77" depart="159" from="n41-n29" to="n54-n19"/>
<trip id="78" depart="161" from="n45-n33" to="n9-n25"/>
<trip id="79" depart="162" from="n38-n53" to="n54-n19"/>
<trip id="80" depart="165" from="n25-n9" to="n51-n27"/>
<trip id="81" depart="170" from="n45-n33" to="n57-n43"/>
<trip id="82" depart="170" from="n43-n57" to="n29-n41"/>
<trip id="83" depart="171" from="n38-n53" to="n57-n43"/>
<trip id="84" depart="171" from="n42-n30" to="n51-n27"/>
<trip id="85" depart="172" from="n27-n51" to="n54-n19"/>
<trip id="86" depart="173" from="n41-n29" to="n26-n37"/>
<trip id="87" depart="173" from="n36-n24" to="n51-n27"/>
<trip id="88" depart="174" from="n42-n30" to="n5-n23"/>
<trip id="89" depart="175" from="n38-n53" to="n4-n20"/>
<trip id="90" depart="176" from="n19-n54" to="n53-n38"/>
<trip id="91" depart="177" from="n19-n54" to="n4-n20"/>
<trip id="92" depart="177" from="n43-n57" to="n51-n27"/>
<trip id="93" depart="178" from="n19-n54" to="n26-n37"/>
<trip id="94" depart="178" from="n44-n32" to="n54-n19"/>
<trip id="95" depart="179" from="n43-n57" to="n53-n38"/>
<trip id="96" depart="185" from="n27-n51" to="n53-n38"/>
<trip id="97" depart="190" from="n38-n53" to="n54-n19"/>
<trip id="98" depart="191" from="n39-n33" to="n51-n27"/>
<trip id="99" depart="192" from="n20-n4" to="n51-n27"/>
<trip id="100" depart="193" from="n21-n1" to="n57-n43"/>
<trip id="101" depart="194" from="n27-n51" to="n53-n38"/>
<trip id="102" depart="194" from="n45-n33" to="n53-n38"/>
<trip id="103" depart="196" from="n35-n22" to="n24-n36"/>
<trip id="104" depart="199" from="n19-n54" to="n51-n27"/>
<trip id="105" depart="201" from="n18-n2" to="n54-n19"/>
<trip id="106" depart="202" from="n17-n1" to="n57-n43"/>
<trip id="107" depart="202" from="n19-n54" to="n53-n38"/>
<trip id="108" depart="203" from="n19-n54" to="n57-n43"/>
<trip id="109" depart="203" from="n19-n54" to="n53-n38"/>
<trip id="110" depart="205" from="n38-n53" to="n51-n27"/>
<trip id="111" depart="210" from="n34-n22" to="n53-n38"/>
<trip id="112" depart="215" from="n36-n24" to="n32-n44"/>
<trip id="113" depart="220" from="n43-n57" to="n54-n19"/>
<trip id="114" depart="220" from="n20-n4" to="n51-n27"/>
<trip id="115" depart="220" from="n19-n54" to="n57-n43"/>
<trip id="116" depart="223" from="n19-n54" to="n30-n42"/>
<trip id="117" depart="225" from="n19-n54" to="n4-n20"/>
<trip id="118" depart="236" from="n38-n53" to="n54-n19"/>
<trip id="119" depart="236" from="n27-n51" to="n2-n18"/>
<trip id="120" depart="240" from="n38-n53" to="n4-n20"/>
<trip id="121" depart="241" from="n27-n51" to="n5-n23"/>
<trip id="122" depart="247" from="n17-n1" to="n57-n43"/>
<trip id="123" depart="248" from="n43-n57" to="n54-n19"/>
<trip id="124" depart="249" from="n40-n29" to="n54-n19"/>
<trip id="125" depart="251" from="n38-n53" to="n33-n45"/>
<trip id="126" depart="251" from="n43-n57" to="n9-n25"/>
<trip id="127" depart="254" from="n38-n53" to="n22-n34"/>
<trip id="128" depart="255" from="n25-n9" to="n29-n40"/>
<trip id="129" depart="256" from="n43-n57" to="n1-n17"/>
<trip id="130" depart="257" from="n43-n57" to="n54-n19"/>
<trip id="131" depart="259" from="n38-n53" to="n54-n19"/>
<trip id="132" depart="260" from="n38-n53" to="n51-n27"/>
<trip id="133" depart="262" from="n38-n53" to="n51-n27"/>
<trip id="134" depart="263" from="n19-n54" to="n4-n20"/>
<trip id="135" depart="264" from="n19-n54" to="n57-n43"/>
<trip id="136" depart="264" from="n43-n57" to="n53-n38"/>
<trip id="137" depart="265" from="n23-n5" to="n51-n27"/>
<trip id="138" depart="266" from="n42-n30" to="n53-n38"/>
<trip id="139" depart="269" from="n19-n54" to="n29-n41"/>
<trip id="140" depart="270" from="n43-n57" to="n26-n37"/>
<trip id="141" depart="270" from="n45-n33" to="n1-n17"/>
<trip id="142" depart="271" from="n43-n57" to="n54-n19"/>
<trip id="143" depart="272" from="n35-n22" to="n51-n27"/>
<trip id="144" depart="275" from="n38-n53" to="n54-n19"/>
<trip id="145" depart="276" from="n43-n57" to="n51-n27"/>
<trip id="146" depart="277" from="n37-n26" to="n57-n43"/>
<trip id="147" depart="278" from="n43-n57" to="n54-n19"/>
<trip id="148" depart="279" from="n45-n33" to="n57-n43"/>
<trip id="149" depart="279" from="n17-n1" to="n54-n19"/>
<trip id="150" depart="279" from="n43-n57" to="n2-n18"/>
<trip id="151" depart="280" from="n21-n1" to="n54-n19"/>
<trip id="152" depart="280" from="n38-n53" to="n51-n27"/>
<trip id="153" depart="282" from="n27-n51" to="n5-n23"/>
<trip id="154" depart="285" from="n43-n57" to="n24-n36"/>
<trip id="155" depart="286" from="n19-n54" to="n53-n38"/>
<trip id="156" depart="288" from="n43-n57" to="n53-n38"/>
<trip id="157" depart="290" from="n27-n51" to="n26-n37"/>
<trip id="158" depart="292" from="n20-n4" to="n54-n19"/>
<trip id="159" depart="294" from="n18-n2" to="n57-n43"/>
<trip id="160" depart="303" from="n38-n53" to="n57-n43"/>
<trip id="161" depart="308" from="n43-n57" to="n24-n36"/>
<trip id="162" depart="309" from="n36-n24" to="n54-n19"/>
<trip id="163" depart="312" from="n25-n9" to="n57-n43"/>
<trip id="164" depart="315" from="n20-n4" to="n51-n27"/>
<trip id="165" depart="321" from="n25-n9" to="n51-n27"/>
<trip id="166" depart="323" from="n38-n53" to="n51-n27"/>
<trip id="167" depart="324" from="n27-n51" to="n5-n23"/>
<trip id="168" depart="330" from="n27-n51" to="n57-n43"/>
<trip id="169" depart="332" from="n23-n5" to="n32-n44"/>
<trip id="170" depart="333" from="n41-n29" to="n2-n18"/>
<trip id="171" depart="334" from="n40-n29" to="n54-n19"/>
<trip id="172" depart="335" from="n27-n51" to="n54-n19"/>
<trip id="173" depart="336" from="n38-n53" to="n57-n43"/>
<trip id="174" depart="340" from="n43-n57" to="n54-n19"/>
<trip id="175" depart="342" from="n27-n51" to="n1-n21"/>
<trip id="176" depart="343" from="n43-n57" to="n53-n38"/>
<trip id="177" depart="346" from="n40-n29" to="n51-n27"/>
<trip id="178" depart="349" from="n44-n32" to="n53-n38"/>
<trip id="179" depart="350" from="n43-n57" to="n53-n38"/>
<trip id="180" depart="360" from="n40-n29" to="n54-n19"/>
<trip id="181" depart="362" from="n38-n53" to="n51-n27"/>
<trip id="182" depart="364" from="n21-n1" to="n51-n27"/>
<trip id="183" depart="366" from="n17-n1" to="n57-n43"/>
<trip id="184" depart="367" from="n38-n53" to="n57-n43"/>
<trip id="185" depart="373" from="n19-n54" to="n1-n17"/>
<trip id="186" depart="376" from="n27-n51" to="n33-n39"/>
<trip id="187" depart="378" from="n38-n53" to="n51-n27"/>
<trip id="188" depart="381" from="n43-n57" to="n53-n38"/>
<trip id="189" depart="382" from="n25-n9" to="n53-n38"/>
<trip id="190" depart="388" from="n38-n53" to="n57-n43"/>
<trip id="191" depart="388" from="n43-n57" to="n54-n19"/>
<trip id="192" depart="391" from="n43-n57" to="n54-n19"/>
<trip id="193" depart="393" from="n27-n51" to="n57-n43"/>
<trip id="194" depart="395" from="n17-n1" to="n57-n43"/>
<trip id="195" depart="398" from="n19-n54" to="n57-n43"/>
<trip id="196" depart="401" from="n43-n57" to="n1-n17"/>
<trip id="197" depart="402" from="n42-n30" to="n51-n27"/>
<trip id="198" depart="403" from="n38-n53" to="n51-n27"/>
<trip id="199" depart="409" from="n43-n57" to="n54-n19"/>
<trip id="200" depart="411" from="n43-n57" to="n53-n38"/>
<trip id="201" depart="414" from="n20-n4" to="n53-n38"/>
<trip id="202" depart="414" from="n44-n32" to="n51-n27"/>
<trip id="203" depart="416" from="n27-n51" to="n57-n43"/>
<trip id="204" depart="416" from="n27-n51" to="n57-n43"/>
<trip id="205" depart="418" from="n27-n51" to="n57-n43"/>
<trip id="206" depart="419" from="n34-n22" to="n53-n38"/>
<trip id="207" depart="420" from="n44-n32" to="n51-n27"/>
<trip id="208" depart="423" from="n38-n53" to="n24-n36"/>
<trip id="209" depart="424" from="n38-n53" to="n57-n43"/>
<trip id="210" depart="426" from="n43-n57" to="n26-n37"/>
<trip id="211" depart="428" from="n19-n54" to="n26-n37"/>
<trip id="212" depart="436" from="n23-n5" to="n54-n19"/>
<trip id="213" depart="438" from="n27-n51" to="n9-n25"/>
<trip id="214" depart="444" from="n19-n54" to="n53-n38"/>
<trip id="215" depart="450" from="n38-n53" to="n51-n27"/>
<trip id="216" depart="450" from="n19-n54" to="n30-n42"/>
<trip id="217" depart="453" from="n27-n51" to="n57-n43"/>
<trip id="218" depart="455" from="n19-n54" to="n51-n27"/>
<trip id="219" depart="457" from="n43-n57" to="n51-n27"/>
<trip id="220" depart="459" from="n38-n53" to="n54-n19"/>
<trip id="221" depart="460" from="n19-n54" to="n57-n43"/>
<trip id="222" depart="468" from="n23-n5" to="n1-n17"/>
<trip id="223" depart="472" from="n43-n57" to="n51-n27"/>
<trip id="224" depart="472" from="n43-n57" to="n1-n21"/>
<trip id="225" depart="472" from="n27-n51" to="n9-n25"/>
<trip id="226" depart="475" from="n45-n33" to="n51-n27"/>
<trip id="227" depart="477" from="n41-n29" to="n51-n27"/>
<trip id="228" depart="480" from="n19-n54" to="n53-n38"/>
<trip id="229" depart="483" from="n25-n9" to="n54-n19"/>
<trip id="230" depart="488" from="n23-n5" to="n54-n19"/>
<trip id="231" depart="491" from="n23-n5" to="n57-n43"/>
<trip id="232" depart="492" from="n38-n53" to="n51-n27"/>
<trip id="233" depart="493" from="n19-n54" to="n57-n43"/>
<trip id="234" depart="495" from="n42-n30" to="n9-n25"/>
<trip id="235" depart="495" from="n43-n57" to="n54-n19"/>
<trip id="236" depart="496" from="n42-n30" to="n5-n23"/>
<trip id="237" depart="498" from="n27-n51" to="n33-n45"/>
<trip id="238" depart="499" from="n38-n53" to="n57-n43"/>
<trip id="239" depart="502" from="n19-n54" to="n53-n38"/>
<trip id="240" depart="502" from="n38-n53" to="n54-n19"/>
<trip id="241" depart="504" from="n42-n30" to="n54-n19"/>
<trip id="242" depart="506" from="n19-n54" to="n53-n38"/>
<trip id="243" depart="511" from="n39-n33" to="n53-n38"/>
<trip id="244" depart="511" from="n19-n54" to="n57-n43"/>
<trip id="245" depart="512" from="n19-n54" to="n51-n27"/>
<trip id="246" depart="516" from="n43-n57" to="n54-n19"/>
<trip id="247" depart="516" from="n38-n53" to="n51-n27"/>
<trip id="248" depart="519" from="n27-n51" to="n9-n25"/>
<trip id="249" depart="520" from="n36-n24" to="n1-n17"/>
<trip id="250" depart="524" from="n38-n53" to="n5-n23"/>
<trip id="251" depart="531" from="n35-n22" to="n53-n38"/>
<trip id="252" depart="532" from="n19-n54" to="n51-n27"/>
<trip id="253" depart="533" from="n19-n54" to="n53-n38"/>
<trip id="254" depart="533" from="n45-n33" to="n22-n34"/>
<trip id="255" depart="534" from="n27-n51" to="n5-n23"/>
<trip id="256" depart="536" from="n38-n53" to="n54-n19"/>
<trip id="257" depart="538" from="n43-n57" to="n54-n19"/>
<trip id="258" depart="538" from="n43-n57" to="n1-n17"/>
<trip id="259" depart="543" from="n36-n24" to="n53-n38"/>
<trip id="260" depart="544" from="n19-n54" to="n53-n38"/>
<trip id="261" depart="544" from="n38-n53" to="n54-n19"/>
<trip id="262" depart="544" from="n21-n1" to="n30-n42"/>
<trip id="263" depart="545" from="n41-n29" to="n53-n38"/>
<trip id="264" depart="545" from="n19-n54" to="n22-n34"/>
<trip id="265" depart="548" from="n45-n33" to="n53-n38"/>
<trip id="266" depart="548" from="n38-n53" to="n57-n43"/>
<trip id="267" depart="555" from="n37-n26" to="n54-n19"/>
<trip id="268" depart="557" from="n19-n54" to="n51-n27"/>
<trip id="269" depart="557" from="n19-n54" to="n51-n27"/>
<trip id="270" depart="558" from="n45-n33" to="n51-n27"/>
<trip id="271" depart="562" from="n40-n29" to="n1-n21"/>
<trip id="272" depart="562" from="n37-n26" to="n57-n43"/>
<trip id="273" depart="562" from="n19-n54" to="n51-n27"/>
<trip id="274" depart="563" from="n43-n57" to="n26-n37"/>
<trip id="275" depart="569" from="n38-n53" to="n57-n43"/>
<trip id="276" depart="572" from="n17-n1" to="n54-n19"/>
<trip id="277" depart="576" from="n38-n53" to="n57-n43"/>
<trip id="278" depart="577" from="n19-n54" to="n1-n17"/>
<trip id="279" depart="578" from="n27-n51" to="n54-n19"/>
<trip id="280" depart="579" from="n43-n57" to="n51-n27"/>
<trip id="281" depart="580" from="n43-n57" to="n24-n36"/>
<trip id="282" depart="581" from="n36-n24" to="n57-n43"/>
<trip id="283" depart="583" from="n39-n33" to="n53-n38"/>
<trip id="284" depart="588" from="n35-n22" to="n53-n38"/>
<trip id="285" depart="588" from="n40-n29" to="n53-n38"/>
<trip id="286" depart="593" from="n19-n54" to="n22-n34"/>
<trip id="287" depart="597" from="n43-n57" to="n53-n38"/>
<trip id="288" depart="605" from="n19-n54" to="n29-n41"/>
<trip id="289" depart="607" from="n43-n57" to="n51-n27"/>
<trip id="290" depart="607" from="n39-n33" to="n9-n25"/>
<trip id="291" depart="609" from="n41-n29" to="n51-n27"/>
<trip id="292" depart="612" from="n19-n54" to="n33-n39"/>
<trip id="293" depart="616" from="n27-n51" to="n54-n19"/>
<trip id="294" depart="618" from="n43-n57" to="n33-n39"/>
<trip id="295" depart="619" from="n43-n57" to="n53-n38"/>
<trip id="296" depart="623" from="n27-n51" to="n2-n18"/>
<trip id="297" depart="625" from="n35-n22" to="n51-n27"/>
<trip id="298" depart="625" from="n19-n54" to="n26-n37"/>
<trip id="299" depart="628" from="n43-n57" to="n53-n38"/>
<trip id="300" depart="628" from="n19-n54" to="n51-n27"/>
<trip id="301" depart="629" from="n42-n30" to="n51-n27"/>
<trip id="302" depart="632" from="n19-n54" to="n33-n39"/>
<trip id="303" depart="636" from="n17-n1" to="n54-n19"/>
<trip id="304" depart="636" from="n43-n57" to="n54-n19"/>
<trip id="305" depart="636" from="n38-n53" to="n9-n25"/>
<trip id="306" depart="638" from="n44-n32" to="n4-n20"/>
<trip id="307" depart="638" from="n19-n54" to="n57-n43"/>
<trip id="308" depart="641" from="n43-n57" to="n26-n37"/>
<trip id="309" depart="642" from="n19-n54" to="n53-n38"/>
<trip id="310" depart="646" from="n19-n54" to="n24-n36"/>
<trip id="311" depart="648" from="n43-n57" to="n51-n27"/>
<trip id="312" depart="650" from="n43-n57" to="n33-n39"/>
<trip id="313" depart="651" from="n17-n1" to="n5-n23"/>
<trip id="314" depart="653" from="n38-n53" to="n51-n27"/>
<trip id="315" depart="654" from="n37-n26" to="n51-n27"/>
<trip id="316" depart="657" from="n19-n54" to="n53-n38"/>
<trip id="317" depart="657" from="n38-n53" to="n54-n19"/>
<trip id="318" depart="658" from="n42-n30" to="n2-n18"/>
<trip id="319" depart="659" from="n27-n51" to="n54-n19"/>
<trip id="320" depart="661" from="n19-n54" to="n5-n23"/>
<trip id="321" depart="667" from="n43-n57" to="n32-n44"/>
<trip id="322" depart="669" from="n17-n1" to="n51-n27"/>
<trip id="323" depart="670" from="n27-n51" to="n57-n43"/>
<trip id="324" depart="672" from="n38-n53" to="n1-n17"/>
<trip id="325" depart="674" from="n44-n32" to="n57-n43"/>
<trip id="326" depart="675" from="n45-n33" to="n29-n40"/>
<trip id="327" depart="675" from="n27-n51" to="n1-n17"/>
<trip id="328" depart="677" from="n38-n53" to="n51-n27"/>
<trip id="329" depart="681" from="n27-n51" to="n30-n42"/>
<trip id="330" depart="682" from="n44-n32" to="n51-n27"/>
<trip id="331" depart="683" from="n38-n53" to="n29-n41"/>
<trip id="332" depart="683" from="n43-n57" to="n33-n45"/>
<trip id="333" depart="685" from="n38-n53" to="n57-n43"/>
<trip id="334" depart="687" from="n38-n53" to="n33-n39"/>
<trip id="335" depart="694" from="n19-n54" to="n51-n27"/>
<trip id="336" depart="695" from="n43-n57" to="n1-n17"/>
<trip id="337" depart="697" from="n27-n51" to="n57-n43"/>
<trip id="338" depart="705" from="n43-n57" to="n51-n27"/>
<trip id="339" depart="705" from="n45-n33" to="n54-n19"/>
<trip id="340" depart="706" from="n27-n51" to="n33-n39"/>
<trip id="341" depart="712" from="n43-n57" to="n53-n38"/>
<trip id="342" depart="714" from="n17-n1" to="n2-n18"/>
<trip id="343" depart="715" from="n19-n54" to="n51-n27"/>
<trip id="344" depart="716" from="n38-n53" to="n51-n27"/>
<trip id="345" depart="716" from="n27-n51" to="n29-n40"/>
<trip id="346" depart="719" from="n43-n57" to="n51-n27"/>
<trip id="347" depart="721" from="n27-n51" to="n54-n19"/>
<trip id="348" depart="723" from="n44-n32" to="n54-n19"/>
<trip id="349" depart="723" from="n19-n54" to="n57-n43"/>
<trip id="350" depart="723" from="n38-n53" to="n22-n35"/>
<trip id="351" depart="723" from="n19-n54" to="n57-n43"/>
<trip id="352" depart="724" from="n43-n57" to="n53-n38"/>
<trip id="353" depart="724" from="n25-n9" to="n53-n38"/>
<trip id="354" depart="726" from="n38-n53" to="n30-n42"/>
<trip id="355" depart="727" from="n38-n53" to="n1-n17"/>
<trip id="356" depart="729" from="n43-n57" to="n51-n27"/>
<trip id="357" depart="736" from="n42-n30" to="n2-n18"/>
<trip id="358" depart="743" from="n23-n5" to="n57-n43"/>
<trip id="359" depart="746" from="n43-n57" to="n5-n23"/>
<trip id="360" depart="746" from="n35-n22" to="n54-n19"/>
<trip id="361" depart="748" from="n43-n57" to="n32-n44"/>
<trip id="362" depart="750" from="n19-n54" to="n51-n27"/>
<trip id="363" depart="751" from="n19-n54" to="n33-n39"/>
<trip id="364" depart="753" from="n38-n53" to="n29-n40"/>
<trip id="365" depart="753" from="n19-n54" to="n53-n38"/>
<trip id="366" depart="755" from="n38-n53" to="n57-n43"/>
<trip id="367" depart="756" from="n43-n57" to="n54-n19"/>
<trip id="368" depart="760" from="n43-n57" to="n51-n27"/>
<trip id="369" depart="762" from="n38-n53" to="n51-n27"/>
<trip id="370" depart="763" from="n25-n9" to="n53-n38"/>
<trip id="371" depart="765" from="n43-n57" to="n1-n21"/>
<trip id="372" depart="769" from="n27-n51" to="n33-n45"/>
<trip id="373" depart="769" from="n21-n1" to="n30-n42"/>
<trip id="374" depart="772" from="n38-n53" to="n51-n27"/>
<trip id="375" depart="776" from="n34-n22" to="n51-n27"/>
<trip id="376" depart="776" from="n38-n53" to="n57-n43"/>
<trip id="377" depart="776" from="n38-n53" to="n57-n43"/>
<trip id="378" depart="783" from="n19-n54" to="n57-n43"/>
<trip id="379" depart="784" from="n20-n4" to="n57-n43"/>
<trip id="380" depart="787" from="n38-n53" to="n26-n37"/>
<trip id="381" depart="788" from="n25-n9" to="n57-n43"/>
<trip id="382" depart="792" from="n25-n9" to="n51-n27"/>
<trip id="383" depart="792" from="n27-n51" to="n5-n23"/>
<trip id="384" depart="793" from="n27-n51" to="n57-n43"/>
<trip id="385" depart="795" from="n34-n22" to="n33-n45"/>
<trip id="386" depart="796" from="n43-n57" to="n53-n38"/>
<trip id="387" depart="801" from="n19-n54" to="n57-n43"/>
<trip id="388" depart="802" from="n42-n30" to="n54-n19"/>
<trip id="389" depart="805" from="n38-n53" to="n29-n41"/>
<trip id="390" depart="805" from="n43-n57" to="n54-n19"/>
<trip id="391" depart="806" from="n19-n54" to="n57-n43"/>
<trip id="392" depart="806" from="n38-n53" to="n22-n34"/>
<trip id="393" depart="808" from="n19-n54" to="n57-n43"/>
<trip id="394" depart="811" from="n19-n54" to="n22-n35"/>
<trip id="395" depart="813" from="n27-n51" to="n29-n41"/>
<trip id="396" depart="815" from="n21-n1" to="n29-n41"/>
<trip id="397" depart="816" from="n35-n22" to="n4-n20"/>
<trip id="398" depart="816" from="n19-n54" to="n57-n43"/>
<trip id="399" depart="819" from="n38-n53" to="n57-n43"/>
<trip id="400" depart="820" from="n36-n24" to="n57-n43"/>
<trip id="401" depart="821" from="n19-n54" to="n57-n43"/>
<trip id="402" depart="821" from="n19-n54" to="n24-n36"/>
<trip id="403" depart="821" from="n19-n54" to="n4-n20"/>
<trip id="404" depart="826" from="n36-n24" to="n54-n19"/>
<trip id="405" depart="827" from="n35-n22" to="n30-n42"/>
<trip id="406" depart="828" from="n43-n57" to="n54-n19"/>
<trip id="407" depart="829" from="n43-n57" to="n54-n19"/>
<trip id="408" depart="830" from="n25-n9" to="n1-n21"/>
<trip id="409" depart="831" from="n43-n57" to="n22-n34"/>
<trip id="410" depart="833" from="n43-n57" to="n51-n27"/>
<trip id="411" depart="833" from="n19-n54" to="n4-n20"/>
<trip id="412" depart="836" from="n18-n2" to="n57-n43"/>
<trip id="413" depart="836" from="n21-n1" to="n53-n38"/>
<trip id="414" depart="837" from="n27-n51" to="n54-n19"/>
<trip id="415" depart="837" from="n43-n57" to="n22-n35"/>
<trip id="416" depart="837" from="n17-n1" to="n22-n34"/>
<trip id="417" depart="840" from="n17-n1" to="n57-n43"/>
<trip id="418" depart="844" from="n35-n22" to="n1-n17"/>
<trip id="419" depart="846" from="n38-n53" to="n54-n19"/>
<trip id="420" depart="853" from="n27-n51" to="n54-n19"/>
<trip id="421" depart="856" from="n38-n53" to="n57-n43"/>
<trip id="422" depart="856" from="n19-n54" to="n22-n34"/>
<trip id="423" depart="857" from="n19-n54" to="n1-n21"/>
<trip id="424" depart="857" from="n40-n29" to="n53-n38"/>
<trip id="425" depart="859" from="n40-n29" to="n54-n19"/>
<trip id="426" depart="859" from="n45-n33" to="n51-n27"/>
<trip id="427" depart="862" from="n25-n9" to="n53-n38"/>
<trip id="428" depart="865" from="n27-n51" to="n29-n40"/>
<trip id="429" depart="870" from="n45-n33" to="n54-n19"/>
<trip id="430" depart="871" from="n43-n57" to="n33-n45"/>
<trip id="431" depart="876" from="n19-n54" to="n53-n38"/>
<trip id="432" depart="883" from="n43-n57" to="n24-n36"/>
<trip id="433" depart="883" from="n18-n2" to="n51-n27"/>
<trip id="434" depart="884" from="n27-n51" to="n30-n42"/>
<trip id="435" depart="884" from="n27-n51" to="n57-n43"/>
<trip id="436" depart="885" from="n43-n57" to="n53-n38"/>
<trip id="437" depart="887" from="n19-n54" to="n57-n43"/>
<trip id="438" depart="888" from="n38-n53" to="n57-n43"/>
<trip id="439" depart="889" from="n27-n51" to="n33-n45"/>
<trip id="440" depart="890" from="n19-n54" to="n26-n37"/>
<trip id="441" depart="891" from="n19-n54" to="n53-n38"/>
<trip id="442" depart="892" from="n43-n57" to="n9-n25"/>
<trip id="443" depart="895" from="n43-n57" to="n2-n18"/>
<trip id="444" depart="900" from="n43-n57" to="n53-n38"/>
<trip id="445" depart="901" from="n19-n54" to="n51-n27"/>
<trip id="446" depart="902" from="n38-n53" to="n54-n19"/>
<trip id="447" depart="903" from="n43-n57" to="n54-n19"/>
<trip id="448" depart="904" from="n19-n54" to="n51-n27"/>
<trip id="449" depart="905" from="n43-n57" to="n51-n27"/>
<trip id="450" depart="911" from="n25-n9" to="n51-n27"/>
<trip id="451" depart="915" from="n18-n2" to="n53-n38"/>
<trip id="452" depart="917" from="n38-n53" to="n54-n19"/>
<trip id="453" depart="918" from="n43-n57" to="n54-n19"/>
<trip id="454" depart="919" from="n27-n51" to="n22-n35"/>
<trip id="455" depart="922" from="n43-n57" to="n9-n25"/>
<trip id="456" depart="922" from="n27-n51" to="n54-n19"/>
<trip id="457" depart="923" from="n43-n57" to="n53-n38"/>
<trip id="458" depart="928" from="n43-n57" to="n53-n38"/>
<trip id="459" depart="933" from="n27-n51" to="n53-n38"/>
<trip id="460" depart="935" from="n19-n54" to="n57-n43"/>
<trip id="461" depart="935" from="n38-n53" to="n54-n19"/>
<trip id="462" depart="937" from="n43-n57" to="n51-n27"/>
<trip id="463" depart="941" from="n19-n54" to="n9-n25"/>
<trip id="464" depart="946" from="n19-n54" to="n57-n43"/>
<trip id="465" depart="946" from="n35-n22" to="n57-n43"/>
<trip id="466" depart="947" from="n34-n22" to="n54-n19"/>
<trip id="467" depart="957" from="n43-n57" to="n29-n40"/>
<trip id="468" depart="957" from="n17-n1" to="n54-n19"/>
<trip id="469" depart="957" from="n27-n51" to="n24-n36"/>
<trip id="470" depart="958" from="n19-n54" to="n51-n27"/>
<trip id="471" depart="958" from="n20-n4" to="n53-n38"/>
<trip id="472" depart="961" from="n43-n57" to="n54-n19"/>
<trip id="473" depart="966" from="n43-n57" to="n53-n38"/>
<trip id="474" depart="971" from="n38-n53" to="n57-n43"/>
<trip id="475" depart="973" from="n43-n57" to="n54-n19"/>
<trip id="476" depart="974" from="n45-n33" to="n53-n38"/>
<trip id="477" depart="974" from="n37-n26" to="n22-n35"/>
<trip id="478" depart="974" from="n37-n26" to="n53-n38"/>
<trip id="479" depart="975" from="n18-n2" to="n54-n19"/>
<trip id="480" depart="976" from="n19-n54" to="n1-n21"/>
<trip id="481" depart="977" from="n43-n57" to="n54-n19"/>
<trip id="482" depart="979" from="n19-n54" to="n57-n43"/>
<trip id="483" depart="979" from="n19-n54" to="n24-n36"/>
<trip id="484" depart="980" from="n43-n57" to="n51-n27"/>
<trip id="485" depart="982" from="n37-n26" to="n9-n25"/>
<trip id="486" depart="983" from="n38-n53" to="n57-n43"/>
<trip id="487" depart="985" from="n25-n9" to="n54-n19"/>
<trip id="488" depart="986" from="n38-n53" to="n54-n19"/>
<trip id="489" depart="987" from="n27-n51" to="n53-n38"/>
<trip id="490" depart="987" from="n37-n26" to="n54-n19"/>
<trip id="491" depart="991" from="n43-n57" to="n1-n21"/>
<trip id="492" depart="991" from="n19-n54" to="n57-n43"/>
<trip id="493" depart="992" from="n38-n53" to="n29-n40"/>
<trip id="494" depart="993" from="n27-n51" to="n5-n23"/>
<trip id="495" depart="996" from="n38-n53" to="n29-n41"/>
<trip id="496" depart="997" from="n27-n51" to="n29-n40"/>
<trip id="497" depart="997" from="n19-n54" to="n4-n20"/>
<trip id="498" depart="998" from="n27-n51" to="n57-n43"/>
<trip id="499" depart="998" from="n19-n54" to="n51-n27"/>


</routes>