<routes>
    <vType accel="1.0" decel="5.0" id="Car" jmIgnoreKeepClearTime="100.0" maxSpeed="30" length="3" />
        
    <!--emergencyDecel="0.0"-->
    <trip id="0" depart="0" from="n34-n22" to="n9-n25"/>
<trip id="1" depart="2" from="n20-n4" to="n54-n19"/>
<trip id="2" depart="2" from="n19-n54" to="n57-n43"/>
<trip id="3" depart="3" from="n39-n33" to="n53-n38"/>
<trip id="4" depart="3" from="n42-n30" to="n51-n27"/>
<trip id="5" depart="3" from="n43-n57" to="n5-n23"/>
<trip id="6" depart="5" from="n19-n54" to="n26-n37"/>
<trip id="7" depart="7" from="n25-n9" to="n53-n38"/>
<trip id="8" depart="7" from="n37-n26" to="n30-n42"/>
<trip id="9" depart="10" from="n19-n54" to="n32-n44"/>
<trip id="10" depart="12" from="n43-n57" to="n53-n38"/>
<trip id="11" depart="13" from="n38-n53" to="n57-n43"/>
<trip id="12" depart="13" from="n27-n51" to="n32-n44"/>
<trip id="13" depart="14" from="n39-n33" to="n54-n19"/>
<trip id="14" depart="15" from="n42-n30" to="n22-n34"/>
<trip id="15" depart="17" from="n27-n51" to="n33-n45"/>
<trip id="16" depart="18" from="n42-n30" to="n54-n19"/>
<trip id="17" depart="18" from="n20-n4" to="n57-n43"/>
<trip id="18" depart="19" from="n18-n2" to="n22-n35"/>
<trip id="19" depart="19" from="n43-n57" to="n53-n38"/>
<trip id="20" depart="19" from="n43-n57" to="n54-n19"/>
<trip id="21" depart="20" from="n36-n24" to="n57-n43"/>
<trip id="22" depart="20" from="n19-n54" to="n57-n43"/>
<trip id="23" depart="21" from="n42-n30" to="n57-n43"/>
<trip id="24" depart="21" from="n18-n2" to="n1-n17"/>
<trip id="25" depart="22" from="n34-n22" to="n4-n20"/>
<trip id="26" depart="23" from="n43-n57" to="n24-n36"/>
<trip id="27" depart="24" from="n39-n33" to="n9-n25"/>
<trip id="28" depart="24" from="n38-n53" to="n33-n39"/>
<trip id="29" depart="25" from="n38-n53" to="n54-n19"/>
<trip id="30" depart="26" from="n36-n24" to="n57-n43"/>
<trip id="31" depart="26" from="n23-n5" to="n22-n34"/>
<trip id="32" depart="26" from="n35-n22" to="n32-n44"/>
<trip id="33" depart="27" from="n20-n4" to="n9-n25"/>
<trip id="34" depart="27" from="n43-n57" to="n1-n17"/>
<trip id="35" depart="28" from="n38-n53" to="n54-n19"/>
<trip id="36" depart="29" from="n36-n24" to="n53-n38"/>
<trip id="37" depart="29" from="n38-n53" to="n26-n37"/>
<trip id="38" depart="31" from="n25-n9" to="n1-n21"/>
<trip id="39" depart="34" from="n19-n54" to="n5-n23"/>
<trip id="40" depart="36" from="n38-n53" to="n57-n43"/>
<trip id="41" depart="36" from="n19-n54" to="n29-n41"/>
<trip id="42" depart="36" from="n43-n57" to="n54-n19"/>
<trip id="43" depart="37" from="n37-n26" to="n57-n43"/>
<trip id="44" depart="37" from="n38-n53" to="n54-n19"/>
<trip id="45" depart="37" from="n41-n29" to="n57-n43"/>
<trip id="46" depart="38" from="n38-n53" to="n4-n20"/>
<trip id="47" depart="39" from="n27-n51" to="n57-n43"/>
<trip id="48" depart="39" from="n27-n51" to="n57-n43"/>
<trip id="49" depart="41" from="n18-n2" to="n1-n17"/>
<trip id="50" depart="42" from="n45-n33" to="n54-n19"/>
<trip id="51" depart="44" from="n19-n54" to="n22-n35"/>
<trip id="52" depart="44" from="n25-n9" to="n51-n27"/>
<trip id="53" depart="49" from="n17-n1" to="n54-n19"/>
<trip id="54" depart="49" from="n43-n57" to="n51-n27"/>
<trip id="55" depart="50" from="n38-n53" to="n2-n18"/>
<trip id="56" depart="51" from="n40-n29" to="n4-n20"/>
<trip id="57" depart="51" from="n20-n4" to="n51-n27"/>
<trip id="58" depart="53" from="n37-n26" to="n22-n34"/>
<trip id="59" depart="54" from="n39-n33" to="n32-n44"/>
<trip id="60" depart="54" from="n19-n54" to="n33-n39"/>
<trip id="61" depart="56" from="n43-n57" to="n54-n19"/>
<trip id="62" depart="59" from="n27-n51" to="n57-n43"/>
<trip id="63" depart="59" from="n19-n54" to="n29-n41"/>
<trip id="64" depart="59" from="n27-n51" to="n22-n35"/>
<trip id="65" depart="60" from="n35-n22" to="n53-n38"/>
<trip id="66" depart="60" from="n23-n5" to="n29-n41"/>
<trip id="67" depart="61" from="n42-n30" to="n33-n45"/>
<trip id="68" depart="61" from="n17-n1" to="n5-n23"/>
<trip id="69" depart="62" from="n43-n57" to="n1-n17"/>
<trip id="70" depart="63" from="n42-n30" to="n26-n37"/>
<trip id="71" depart="63" from="n17-n1" to="n9-n25"/>
<trip id="72" depart="63" from="n20-n4" to="n30-n42"/>
<trip id="73" depart="63" from="n34-n22" to="n9-n25"/>
<trip id="74" depart="64" from="n43-n57" to="n51-n27"/>
<trip id="75" depart="64" from="n43-n57" to="n53-n38"/>
<trip id="76" depart="64" from="n37-n26" to="n30-n42"/>
<trip id="77" depart="64" from="n35-n22" to="n54-n19"/>
<trip id="78" depart="65" from="n42-n30" to="n54-n19"/>
<trip id="79" depart="65" from="n36-n24" to="n32-n44"/>
<trip id="80" depart="67" from="n43-n57" to="n33-n39"/>
<trip id="81" depart="67" from="n19-n54" to="n22-n35"/>
<trip id="82" depart="69" from="n43-n57" to="n51-n27"/>
<trip id="83" depart="69" from="n19-n54" to="n5-n23"/>
<trip id="84" depart="69" from="n38-n53" to="n33-n45"/>
<trip id="85" depart="74" from="n21-n1" to="n51-n27"/>
<trip id="86" depart="75" from="n27-n51" to="n54-n19"/>
<trip id="87" depart="75" from="n38-n53" to="n33-n45"/>
<trip id="88" depart="77" from="n39-n33" to="n5-n23"/>
<trip id="89" depart="77" from="n20-n4" to="n22-n34"/>
<trip id="90" depart="78" from="n20-n4" to="n29-n40"/>
<trip id="91" depart="79" from="n36-n24" to="n54-n19"/>
<trip id="92" depart="80" from="n19-n54" to="n32-n44"/>
<trip id="93" depart="83" from="n25-n9" to="n51-n27"/>
<trip id="94" depart="83" from="n19-n54" to="n22-n35"/>
<trip id="95" depart="84" from="n27-n51" to="n33-n39"/>
<trip id="96" depart="84" from="n43-n57" to="n30-n42"/>
<trip id="97" depart="87" from="n25-n9" to="n51-n27"/>
<trip id="98" depart="89" from="n45-n33" to="n53-n38"/>
<trip id="99" depart="89" from="n27-n51" to="n22-n34"/>
<trip id="100" depart="90" from="n44-n32" to="n53-n38"/>
<trip id="101" depart="90" from="n36-n24" to="n29-n41"/>
<trip id="102" depart="91" from="n17-n1" to="n22-n35"/>
<trip id="103" depart="94" from="n38-n53" to="n33-n45"/>
<trip id="104" depart="98" from="n38-n53" to="n5-n23"/>
<trip id="105" depart="98" from="n34-n22" to="n33-n39"/>
<trip id="106" depart="99" from="n38-n53" to="n57-n43"/>
<trip id="107" depart="100" from="n23-n5" to="n53-n38"/>
<trip id="108" depart="101" from="n43-n57" to="n54-n19"/>
<trip id="109" depart="101" from="n38-n53" to="n54-n19"/>
<trip id="110" depart="102" from="n38-n53" to="n24-n36"/>
<trip id="111" depart="103" from="n40-n29" to="n54-n19"/>
<trip id="112" depart="104" from="n19-n54" to="n33-n45"/>
<trip id="113" depart="105" from="n34-n22" to="n9-n25"/>
<trip id="114" depart="107" from="n42-n30" to="n26-n37"/>
<trip id="115" depart="107" from="n39-n33" to="n2-n18"/>
<trip id="116" depart="109" from="n19-n54" to="n53-n38"/>
<trip id="117" depart="112" from="n37-n26" to="n54-n19"/>
<trip id="118" depart="113" from="n19-n54" to="n29-n40"/>
<trip id="119" depart="113" from="n38-n53" to="n57-n43"/>
<trip id="120" depart="114" from="n19-n54" to="n53-n38"/>
<trip id="121" depart="115" from="n43-n57" to="n24-n36"/>
<trip id="122" depart="116" from="n27-n51" to="n54-n19"/>
<trip id="123" depart="116" from="n38-n53" to="n33-n39"/>
<trip id="124" depart="116" from="n27-n51" to="n22-n34"/>
<trip id="125" depart="118" from="n20-n4" to="n51-n27"/>
<trip id="126" depart="119" from="n42-n30" to="n54-n19"/>
<trip id="127" depart="121" from="n19-n54" to="n26-n37"/>
<trip id="128" depart="122" from="n37-n26" to="n4-n20"/>
<trip id="129" depart="122" from="n17-n1" to="n57-n43"/>
<trip id="130" depart="122" from="n27-n51" to="n5-n23"/>
<trip id="131" depart="122" from="n35-n22" to="n2-n18"/>
<trip id="132" depart="124" from="n25-n9" to="n57-n43"/>
<trip id="133" depart="124" from="n42-n30" to="n54-n19"/>
<trip id="134" depart="126" from="n45-n33" to="n26-n37"/>
<trip id="135" depart="126" from="n39-n33" to="n9-n25"/>
<trip id="136" depart="127" from="n38-n53" to="n57-n43"/>
<trip id="137" depart="127" from="n38-n53" to="n51-n27"/>
<trip id="138" depart="127" from="n21-n1" to="n32-n44"/>
<trip id="139" depart="129" from="n43-n57" to="n29-n41"/>
<trip id="140" depart="133" from="n19-n54" to="n53-n38"/>
<trip id="141" depart="134" from="n39-n33" to="n53-n38"/>
<trip id="142" depart="134" from="n36-n24" to="n1-n21"/>
<trip id="143" depart="136" from="n18-n2" to="n54-n19"/>
<trip id="144" depart="136" from="n44-n32" to="n22-n34"/>
<trip id="145" depart="139" from="n36-n24" to="n5-n23"/>
<trip id="146" depart="140" from="n21-n1" to="n29-n41"/>
<trip id="147" depart="141" from="n27-n51" to="n26-n37"/>
<trip id="148" depart="143" from="n43-n57" to="n53-n38"/>
<trip id="149" depart="146" from="n34-n22" to="n54-n19"/>
<trip id="150" depart="147" from="n35-n22" to="n54-n19"/>
<trip id="151" depart="148" from="n41-n29" to="n22-n34"/>
<trip id="152" depart="149" from="n35-n22" to="n4-n20"/>
<trip id="153" depart="151" from="n27-n51" to="n1-n21"/>
<trip id="154" depart="151" from="n21-n1" to="n24-n36"/>
<trip id="155" depart="153" from="n43-n57" to="n4-n20"/>
<trip id="156" depart="155" from="n43-n57" to="n33-n45"/>
<trip id="157" depart="157" from="n43-n57" to="n54-n19"/>
<trip id="158" depart="158" from="n27-n51" to="n57-n43"/>
<trip id="159" depart="159" from="n19-n54" to="n33-n39"/>
<trip id="160" depart="159" from="n42-n30" to="n57-n43"/>
<trip id="161" depart="160" from="n38-n53" to="n57-n43"/>
<trip id="162" depart="161" from="n38-n53" to="n33-n39"/>
<trip id="163" depart="162" from="n41-n29" to="n22-n34"/>
<trip id="164" depart="162" from="n43-n57" to="n51-n27"/>
<trip id="165" depart="162" from="n43-n57" to="n53-n38"/>
<trip id="166" depart="162" from="n43-n57" to="n22-n34"/>
<trip id="167" depart="163" from="n41-n29" to="n51-n27"/>
<trip id="168" depart="164" from="n27-n51" to="n5-n23"/>
<trip id="169" depart="167" from="n25-n9" to="n4-n20"/>
<trip id="170" depart="167" from="n35-n22" to="n54-n19"/>
<trip id="171" depart="167" from="n38-n53" to="n54-n19"/>
<trip id="172" depart="168" from="n38-n53" to="n33-n45"/>
<trip id="173" depart="169" from="n43-n57" to="n4-n20"/>
<trip id="174" depart="170" from="n23-n5" to="n1-n17"/>
<trip id="175" depart="171" from="n38-n53" to="n57-n43"/>
<trip id="176" depart="172" from="n42-n30" to="n51-n27"/>
<trip id="177" depart="172" from="n36-n24" to="n54-n19"/>
<trip id="178" depart="172" from="n34-n22" to="n51-n27"/>
<trip id="179" depart="175" from="n20-n4" to="n54-n19"/>
<trip id="180" depart="177" from="n34-n22" to="n9-n25"/>
<trip id="181" depart="178" from="n44-n32" to="n51-n27"/>
<trip id="182" depart="178" from="n43-n57" to="n29-n40"/>
<trip id="183" depart="179" from="n27-n51" to="n54-n19"/>
<trip id="184" depart="180" from="n43-n57" to="n29-n40"/>
<trip id="185" depart="181" from="n45-n33" to="n5-n23"/>
<trip id="186" depart="184" from="n43-n57" to="n53-n38"/>
<trip id="187" depart="184" from="n38-n53" to="n57-n43"/>
<trip id="188" depart="184" from="n43-n57" to="n53-n38"/>
<trip id="189" depart="185" from="n36-n24" to="n29-n40"/>
<trip id="190" depart="185" from="n27-n51" to="n33-n39"/>
<trip id="191" depart="185" from="n19-n54" to="n51-n27"/>
<trip id="192" depart="185" from="n38-n53" to="n51-n27"/>
<trip id="193" depart="190" from="n40-n29" to="n53-n38"/>
<trip id="194" depart="190" from="n45-n33" to="n24-n36"/>
<trip id="195" depart="190" from="n27-n51" to="n54-n19"/>
<trip id="196" depart="190" from="n43-n57" to="n24-n36"/>
<trip id="197" depart="190" from="n23-n5" to="n30-n42"/>
<trip id="198" depart="191" from="n20-n4" to="n54-n19"/>
<trip id="199" depart="191" from="n38-n53" to="n57-n43"/>
<trip id="200" depart="194" from="n19-n54" to="n51-n27"/>
<trip id="201" depart="196" from="n43-n57" to="n51-n27"/>
<trip id="202" depart="196" from="n21-n1" to="n22-n34"/>
<trip id="203" depart="196" from="n40-n29" to="n29-n41"/>
<trip id="204" depart="197" from="n38-n53" to="n9-n25"/>
<trip id="205" depart="206" from="n23-n5" to="n9-n25"/>
<trip id="206" depart="206" from="n44-n32" to="n54-n19"/>
<trip id="207" depart="207" from="n43-n57" to="n51-n27"/>
<trip id="208" depart="207" from="n27-n51" to="n54-n19"/>
<trip id="209" depart="207" from="n19-n54" to="n53-n38"/>
<trip id="210" depart="208" from="n19-n54" to="n29-n40"/>
<trip id="211" depart="208" from="n19-n54" to="n4-n20"/>
<trip id="212" depart="209" from="n39-n33" to="n24-n36"/>
<trip id="213" depart="209" from="n38-n53" to="n29-n41"/>
<trip id="214" depart="210" from="n19-n54" to="n53-n38"/>
<trip id="215" depart="212" from="n36-n24" to="n51-n27"/>
<trip id="216" depart="213" from="n27-n51" to="n33-n39"/>
<trip id="217" depart="214" from="n43-n57" to="n51-n27"/>
<trip id="218" depart="214" from="n43-n57" to="n54-n19"/>
<trip id="219" depart="215" from="n19-n54" to="n29-n41"/>
<trip id="220" depart="215" from="n27-n51" to="n54-n19"/>
<trip id="221" depart="215" from="n27-n51" to="n54-n19"/>
<trip id="222" depart="216" from="n41-n29" to="n33-n45"/>
<trip id="223" depart="216" from="n19-n54" to="n33-n39"/>
<trip id="224" depart="216" from="n19-n54" to="n29-n40"/>
<trip id="225" depart="217" from="n41-n29" to="n57-n43"/>
<trip id="226" depart="218" from="n39-n33" to="n53-n38"/>
<trip id="227" depart="218" from="n41-n29" to="n22-n34"/>
<trip id="228" depart="221" from="n43-n57" to="n22-n35"/>
<trip id="229" depart="222" from="n35-n22" to="n4-n20"/>
<trip id="230" depart="222" from="n43-n57" to="n53-n38"/>
<trip id="231" depart="222" from="n27-n51" to="n26-n37"/>
<trip id="232" depart="225" from="n42-n30" to="n4-n20"/>
<trip id="233" depart="229" from="n44-n32" to="n24-n36"/>
<trip id="234" depart="229" from="n36-n24" to="n22-n35"/>
<trip id="235" depart="231" from="n38-n53" to="n51-n27"/>
<trip id="236" depart="232" from="n19-n54" to="n32-n44"/>
<trip id="237" depart="236" from="n36-n24" to="n51-n27"/>
<trip id="238" depart="237" from="n43-n57" to="n4-n20"/>
<trip id="239" depart="237" from="n40-n29" to="n57-n43"/>
<trip id="240" depart="237" from="n18-n2" to="n53-n38"/>
<trip id="241" depart="237" from="n27-n51" to="n54-n19"/>
<trip id="242" depart="238" from="n25-n9" to="n29-n40"/>
<trip id="243" depart="238" from="n19-n54" to="n51-n27"/>
<trip id="244" depart="239" from="n38-n53" to="n51-n27"/>
<trip id="245" depart="239" from="n45-n33" to="n53-n38"/>
<trip id="246" depart="241" from="n27-n51" to="n53-n38"/>
<trip id="247" depart="241" from="n43-n57" to="n54-n19"/>
<trip id="248" depart="242" from="n27-n51" to="n53-n38"/>
<trip id="249" depart="243" from="n27-n51" to="n26-n37"/>
<trip id="250" depart="244" from="n39-n33" to="n32-n44"/>
<trip id="251" depart="246" from="n40-n29" to="n5-n23"/>
<trip id="252" depart="246" from="n37-n26" to="n1-n21"/>
<trip id="253" depart="248" from="n27-n51" to="n57-n43"/>
<trip id="254" depart="248" from="n35-n22" to="n57-n43"/>
<trip id="255" depart="249" from="n19-n54" to="n24-n36"/>
<trip id="256" depart="249" from="n21-n1" to="n57-n43"/>
<trip id="257" depart="249" from="n36-n24" to="n29-n41"/>
<trip id="258" depart="250" from="n25-n9" to="n57-n43"/>
<trip id="259" depart="253" from="n42-n30" to="n57-n43"/>
<trip id="260" depart="253" from="n19-n54" to="n4-n20"/>
<trip id="261" depart="254" from="n27-n51" to="n33-n39"/>
<trip id="262" depart="254" from="n18-n2" to="n53-n38"/>
<trip id="263" depart="254" from="n43-n57" to="n9-n25"/>
<trip id="264" depart="254" from="n19-n54" to="n4-n20"/>
<trip id="265" depart="255" from="n36-n24" to="n30-n42"/>
<trip id="266" depart="256" from="n19-n54" to="n51-n27"/>
<trip id="267" depart="257" from="n36-n24" to="n57-n43"/>
<trip id="268" depart="258" from="n25-n9" to="n5-n23"/>
<trip id="269" depart="259" from="n17-n1" to="n22-n35"/>
<trip id="270" depart="261" from="n37-n26" to="n54-n19"/>
<trip id="271" depart="262" from="n27-n51" to="n54-n19"/>
<trip id="272" depart="264" from="n19-n54" to="n29-n40"/>
<trip id="273" depart="266" from="n18-n2" to="n1-n17"/>
<trip id="274" depart="270" from="n19-n54" to="n29-n41"/>
<trip id="275" depart="270" from="n35-n22" to="n53-n38"/>
<trip id="276" depart="275" from="n19-n54" to="n22-n35"/>
<trip id="277" depart="278" from="n21-n1" to="n32-n44"/>
<trip id="278" depart="279" from="n20-n4" to="n29-n41"/>
<trip id="279" depart="279" from="n38-n53" to="n24-n36"/>
<trip id="280" depart="279" from="n42-n30" to="n22-n35"/>
<trip id="281" depart="282" from="n27-n51" to="n9-n25"/>
<trip id="282" depart="282" from="n43-n57" to="n2-n18"/>
<trip id="283" depart="282" from="n38-n53" to="n54-n19"/>
<trip id="284" depart="282" from="n43-n57" to="n54-n19"/>
<trip id="285" depart="282" from="n21-n1" to="n2-n18"/>
<trip id="286" depart="283" from="n43-n57" to="n51-n27"/>
<trip id="287" depart="284" from="n19-n54" to="n53-n38"/>
<trip id="288" depart="285" from="n18-n2" to="n29-n41"/>
<trip id="289" depart="286" from="n21-n1" to="n53-n38"/>
<trip id="290" depart="288" from="n43-n57" to="n51-n27"/>
<trip id="291" depart="288" from="n25-n9" to="n54-n19"/>
<trip id="292" depart="288" from="n40-n29" to="n29-n41"/>
<trip id="293" depart="289" from="n19-n54" to="n1-n17"/>
<trip id="294" depart="291" from="n21-n1" to="n29-n40"/>
<trip id="295" depart="292" from="n45-n33" to="n33-n39"/>
<trip id="296" depart="293" from="n35-n22" to="n57-n43"/>
<trip id="297" depart="293" from="n45-n33" to="n53-n38"/>
<trip id="298" depart="295" from="n27-n51" to="n57-n43"/>
<trip id="299" depart="297" from="n37-n26" to="n53-n38"/>
<trip id="300" depart="297" from="n41-n29" to="n53-n38"/>
<trip id="301" depart="299" from="n43-n57" to="n2-n18"/>
<trip id="302" depart="300" from="n38-n53" to="n29-n41"/>
<trip id="303" depart="301" from="n19-n54" to="n51-n27"/>
<trip id="304" depart="302" from="n37-n26" to="n33-n45"/>
<trip id="305" depart="303" from="n43-n57" to="n54-n19"/>
<trip id="306" depart="306" from="n27-n51" to="n54-n19"/>
<trip id="307" depart="306" from="n36-n24" to="n53-n38"/>
<trip id="308" depart="307" from="n27-n51" to="n22-n35"/>
<trip id="309" depart="309" from="n38-n53" to="n57-n43"/>
<trip id="310" depart="309" from="n43-n57" to="n1-n21"/>
<trip id="311" depart="309" from="n41-n29" to="n57-n43"/>
<trip id="312" depart="310" from="n19-n54" to="n29-n41"/>
<trip id="313" depart="311" from="n43-n57" to="n9-n25"/>
<trip id="314" depart="311" from="n37-n26" to="n53-n38"/>
<trip id="315" depart="314" from="n42-n30" to="n51-n27"/>
<trip id="316" depart="315" from="n38-n53" to="n5-n23"/>
<trip id="317" depart="315" from="n17-n1" to="n53-n38"/>
<trip id="318" depart="318" from="n42-n30" to="n4-n20"/>
<trip id="319" depart="318" from="n43-n57" to="n53-n38"/>
<trip id="320" depart="318" from="n21-n1" to="n26-n37"/>
<trip id="321" depart="319" from="n43-n57" to="n1-n17"/>
<trip id="322" depart="320" from="n38-n53" to="n22-n34"/>
<trip id="323" depart="320" from="n43-n57" to="n2-n18"/>
<trip id="324" depart="320" from="n38-n53" to="n33-n45"/>
<trip id="325" depart="322" from="n27-n51" to="n54-n19"/>
<trip id="326" depart="324" from="n38-n53" to="n54-n19"/>
<trip id="327" depart="324" from="n19-n54" to="n22-n34"/>
<trip id="328" depart="326" from="n19-n54" to="n53-n38"/>
<trip id="329" depart="327" from="n18-n2" to="n53-n38"/>
<trip id="330" depart="327" from="n44-n32" to="n33-n39"/>
<trip id="331" depart="328" from="n19-n54" to="n53-n38"/>
<trip id="332" depart="328" from="n37-n26" to="n4-n20"/>
<trip id="333" depart="329" from="n42-n30" to="n33-n45"/>
<trip id="334" depart="330" from="n38-n53" to="n29-n40"/>
<trip id="335" depart="330" from="n39-n33" to="n1-n21"/>
<trip id="336" depart="331" from="n38-n53" to="n57-n43"/>
<trip id="337" depart="331" from="n38-n53" to="n57-n43"/>
<trip id="338" depart="334" from="n43-n57" to="n53-n38"/>
<trip id="339" depart="335" from="n37-n26" to="n29-n41"/>
<trip id="340" depart="336" from="n38-n53" to="n57-n43"/>
<trip id="341" depart="336" from="n21-n1" to="n51-n27"/>
<trip id="342" depart="336" from="n41-n29" to="n53-n38"/>
<trip id="343" depart="337" from="n43-n57" to="n51-n27"/>
<trip id="344" depart="337" from="n40-n29" to="n51-n27"/>
<trip id="345" depart="337" from="n27-n51" to="n54-n19"/>
<trip id="346" depart="339" from="n38-n53" to="n51-n27"/>
<trip id="347" depart="341" from="n43-n57" to="n54-n19"/>
<trip id="348" depart="341" from="n20-n4" to="n54-n19"/>
<trip id="349" depart="342" from="n36-n24" to="n54-n19"/>
<trip id="350" depart="342" from="n39-n33" to="n54-n19"/>
<trip id="351" depart="342" from="n37-n26" to="n29-n41"/>
<trip id="352" depart="342" from="n17-n1" to="n51-n27"/>
<trip id="353" depart="343" from="n42-n30" to="n57-n43"/>
<trip id="354" depart="343" from="n20-n4" to="n54-n19"/>
<trip id="355" depart="343" from="n27-n51" to="n33-n45"/>
<trip id="356" depart="345" from="n43-n57" to="n33-n39"/>
<trip id="357" depart="346" from="n27-n51" to="n32-n44"/>
<trip id="358" depart="348" from="n19-n54" to="n57-n43"/>
<trip id="359" depart="350" from="n19-n54" to="n22-n34"/>
<trip id="360" depart="351" from="n27-n51" to="n30-n42"/>
<trip id="361" depart="353" from="n18-n2" to="n54-n19"/>
<trip id="362" depart="353" from="n38-n53" to="n54-n19"/>
<trip id="363" depart="354" from="n34-n22" to="n54-n19"/>
<trip id="364" depart="355" from="n44-n32" to="n54-n19"/>
<trip id="365" depart="356" from="n40-n29" to="n1-n17"/>
<trip id="366" depart="357" from="n39-n33" to="n57-n43"/>
<trip id="367" depart="360" from="n19-n54" to="n53-n38"/>
<trip id="368" depart="361" from="n27-n51" to="n54-n19"/>
<trip id="369" depart="362" from="n43-n57" to="n54-n19"/>
<trip id="370" depart="362" from="n34-n22" to="n54-n19"/>
<trip id="371" depart="362" from="n27-n51" to="n24-n36"/>
<trip id="372" depart="362" from="n38-n53" to="n29-n40"/>
<trip id="373" depart="363" from="n35-n22" to="n1-n17"/>
<trip id="374" depart="364" from="n19-n54" to="n53-n38"/>
<trip id="375" depart="364" from="n38-n53" to="n26-n37"/>
<trip id="376" depart="364" from="n39-n33" to="n29-n40"/>
<trip id="377" depart="365" from="n41-n29" to="n22-n35"/>
<trip id="378" depart="366" from="n41-n29" to="n24-n36"/>
<trip id="379" depart="367" from="n19-n54" to="n53-n38"/>
<trip id="380" depart="370" from="n45-n33" to="n1-n21"/>
<trip id="381" depart="372" from="n43-n57" to="n5-n23"/>
<trip id="382" depart="372" from="n19-n54" to="n1-n17"/>
<trip id="383" depart="373" from="n27-n51" to="n2-n18"/>
<trip id="384" depart="373" from="n19-n54" to="n53-n38"/>
<trip id="385" depart="373" from="n38-n53" to="n51-n27"/>
<trip id="386" depart="375" from="n34-n22" to="n54-n19"/>
<trip id="387" depart="376" from="n43-n57" to="n33-n45"/>
<trip id="388" depart="381" from="n19-n54" to="n53-n38"/>
<trip id="389" depart="382" from="n44-n32" to="n57-n43"/>
<trip id="390" depart="383" from="n45-n33" to="n29-n40"/>
<trip id="391" depart="388" from="n20-n4" to="n57-n43"/>
<trip id="392" depart="389" from="n36-n24" to="n57-n43"/>
<trip id="393" depart="389" from="n17-n1" to="n26-n37"/>
<trip id="394" depart="389" from="n19-n54" to="n51-n27"/>
<trip id="395" depart="391" from="n35-n22" to="n53-n38"/>
<trip id="396" depart="393" from="n43-n57" to="n1-n17"/>
<trip id="397" depart="393" from="n25-n9" to="n57-n43"/>
<trip id="398" depart="393" from="n19-n54" to="n1-n21"/>
<trip id="399" depart="394" from="n43-n57" to="n54-n19"/>
<trip id="400" depart="394" from="n38-n53" to="n51-n27"/>
<trip id="401" depart="394" from="n23-n5" to="n57-n43"/>
<trip id="402" depart="395" from="n38-n53" to="n22-n34"/>
<trip id="403" depart="395" from="n38-n53" to="n9-n25"/>
<trip id="404" depart="397" from="n18-n2" to="n57-n43"/>
<trip id="405" depart="397" from="n21-n1" to="n9-n25"/>
<trip id="406" depart="398" from="n44-n32" to="n53-n38"/>
<trip id="407" depart="400" from="n43-n57" to="n51-n27"/>
<trip id="408" depart="401" from="n27-n51" to="n9-n25"/>
<trip id="409" depart="401" from="n43-n57" to="n29-n41"/>
<trip id="410" depart="402" from="n35-n22" to="n53-n38"/>
<trip id="411" depart="403" from="n38-n53" to="n22-n34"/>
<trip id="412" depart="404" from="n39-n33" to="n54-n19"/>
<trip id="413" depart="404" from="n37-n26" to="n53-n38"/>
<trip id="414" depart="404" from="n38-n53" to="n57-n43"/>
<trip id="415" depart="406" from="n19-n54" to="n53-n38"/>
<trip id="416" depart="406" from="n36-n24" to="n53-n38"/>
<trip id="417" depart="406" from="n36-n24" to="n1-n17"/>
<trip id="418" depart="406" from="n19-n54" to="n51-n27"/>
<trip id="419" depart="410" from="n43-n57" to="n33-n39"/>
<trip id="420" depart="411" from="n35-n22" to="n4-n20"/>
<trip id="421" depart="411" from="n19-n54" to="n53-n38"/>
<trip id="422" depart="412" from="n27-n51" to="n54-n19"/>
<trip id="423" depart="415" from="n21-n1" to="n5-n23"/>
<trip id="424" depart="415" from="n19-n54" to="n57-n43"/>
<trip id="425" depart="416" from="n27-n51" to="n22-n35"/>
<trip id="426" depart="418" from="n35-n22" to="n57-n43"/>
<trip id="427" depart="419" from="n36-n24" to="n57-n43"/>
<trip id="428" depart="419" from="n43-n57" to="n29-n40"/>
<trip id="429" depart="420" from="n20-n4" to="n1-n17"/>
<trip id="430" depart="420" from="n19-n54" to="n57-n43"/>
<trip id="431" depart="420" from="n19-n54" to="n57-n43"/>
<trip id="432" depart="421" from="n43-n57" to="n54-n19"/>
<trip id="433" depart="422" from="n27-n51" to="n9-n25"/>
<trip id="434" depart="422" from="n18-n2" to="n51-n27"/>
<trip id="435" depart="422" from="n43-n57" to="n26-n37"/>
<trip id="436" depart="423" from="n34-n22" to="n54-n19"/>
<trip id="437" depart="423" from="n19-n54" to="n22-n35"/>
<trip id="438" depart="424" from="n43-n57" to="n4-n20"/>
<trip id="439" depart="427" from="n43-n57" to="n4-n20"/>
<trip id="440" depart="427" from="n27-n51" to="n54-n19"/>
<trip id="441" depart="427" from="n40-n29" to="n24-n36"/>
<trip id="442" depart="430" from="n18-n2" to="n53-n38"/>
<trip id="443" depart="431" from="n43-n57" to="n24-n36"/>
<trip id="444" depart="432" from="n19-n54" to="n1-n17"/>
<trip id="445" depart="432" from="n35-n22" to="n57-n43"/>
<trip id="446" depart="435" from="n45-n33" to="n54-n19"/>
<trip id="447" depart="435" from="n17-n1" to="n54-n19"/>
<trip id="448" depart="435" from="n37-n26" to="n57-n43"/>
<trip id="449" depart="435" from="n44-n32" to="n57-n43"/>
<trip id="450" depart="435" from="n43-n57" to="n33-n39"/>
<trip id="451" depart="435" from="n23-n5" to="n57-n43"/>
<trip id="452" depart="439" from="n19-n54" to="n51-n27"/>
<trip id="453" depart="440" from="n35-n22" to="n57-n43"/>
<trip id="454" depart="440" from="n38-n53" to="n57-n43"/>
<trip id="455" depart="442" from="n35-n22" to="n57-n43"/>
<trip id="456" depart="442" from="n43-n57" to="n9-n25"/>
<trip id="457" depart="443" from="n19-n54" to="n53-n38"/>
<trip id="458" depart="443" from="n38-n53" to="n4-n20"/>
<trip id="459" depart="445" from="n39-n33" to="n51-n27"/>
<trip id="460" depart="446" from="n34-n22" to="n5-n23"/>
<trip id="461" depart="448" from="n27-n51" to="n29-n40"/>
<trip id="462" depart="449" from="n43-n57" to="n54-n19"/>
<trip id="463" depart="450" from="n38-n53" to="n26-n37"/>
<trip id="464" depart="452" from="n17-n1" to="n51-n27"/>
<trip id="465" depart="452" from="n38-n53" to="n54-n19"/>
<trip id="466" depart="454" from="n19-n54" to="n24-n36"/>
<trip id="467" depart="454" from="n17-n1" to="n57-n43"/>
<trip id="468" depart="454" from="n34-n22" to="n9-n25"/>
<trip id="469" depart="454" from="n34-n22" to="n4-n20"/>
<trip id="470" depart="456" from="n19-n54" to="n51-n27"/>
<trip id="471" depart="456" from="n23-n5" to="n9-n25"/>
<trip id="472" depart="457" from="n43-n57" to="n5-n23"/>
<trip id="473" depart="457" from="n36-n24" to="n22-n34"/>
<trip id="474" depart="457" from="n35-n22" to="n53-n38"/>
<trip id="475" depart="459" from="n35-n22" to="n29-n40"/>
<trip id="476" depart="459" from="n38-n53" to="n54-n19"/>
<trip id="477" depart="462" from="n38-n53" to="n26-n37"/>
<trip id="478" depart="462" from="n27-n51" to="n57-n43"/>
<trip id="479" depart="466" from="n39-n33" to="n22-n35"/>
<trip id="480" depart="466" from="n43-n57" to="n53-n38"/>
<trip id="481" depart="468" from="n19-n54" to="n53-n38"/>
<trip id="482" depart="469" from="n23-n5" to="n26-n37"/>
<trip id="483" depart="472" from="n19-n54" to="n33-n39"/>
<trip id="484" depart="475" from="n27-n51" to="n57-n43"/>
<trip id="485" depart="476" from="n38-n53" to="n57-n43"/>
<trip id="486" depart="477" from="n39-n33" to="n30-n42"/>
<trip id="487" depart="477" from="n35-n22" to="n9-n25"/>
<trip id="488" depart="481" from="n19-n54" to="n2-n18"/>
<trip id="489" depart="484" from="n25-n9" to="n53-n38"/>
<trip id="490" depart="484" from="n35-n22" to="n51-n27"/>
<trip id="491" depart="485" from="n35-n22" to="n54-n19"/>
<trip id="492" depart="485" from="n27-n51" to="n53-n38"/>
<trip id="493" depart="486" from="n45-n33" to="n1-n17"/>
<trip id="494" depart="486" from="n27-n51" to="n57-n43"/>
<trip id="495" depart="487" from="n39-n33" to="n57-n43"/>
<trip id="496" depart="487" from="n45-n33" to="n5-n23"/>
<trip id="497" depart="488" from="n18-n2" to="n51-n27"/>
<trip id="498" depart="488" from="n43-n57" to="n24-n36"/>
<trip id="499" depart="488" from="n41-n29" to="n22-n34"/>
<trip id="500" depart="490" from="n38-n53" to="n54-n19"/>
<trip id="501" depart="490" from="n19-n54" to="n4-n20"/>
<trip id="502" depart="492" from="n43-n57" to="n51-n27"/>
<trip id="503" depart="492" from="n27-n51" to="n33-n45"/>
<trip id="504" depart="492" from="n18-n2" to="n51-n27"/>
<trip id="505" depart="493" from="n27-n51" to="n53-n38"/>
<trip id="506" depart="494" from="n38-n53" to="n54-n19"/>
<trip id="507" depart="494" from="n39-n33" to="n57-n43"/>
<trip id="508" depart="496" from="n18-n2" to="n57-n43"/>
<trip id="509" depart="496" from="n21-n1" to="n29-n41"/>
<trip id="510" depart="499" from="n41-n29" to="n26-n37"/>
<trip id="511" depart="500" from="n35-n22" to="n51-n27"/>
<trip id="512" depart="501" from="n43-n57" to="n4-n20"/>
<trip id="513" depart="502" from="n37-n26" to="n29-n41"/>
<trip id="514" depart="503" from="n38-n53" to="n22-n35"/>
<trip id="515" depart="503" from="n45-n33" to="n53-n38"/>
<trip id="516" depart="503" from="n40-n29" to="n53-n38"/>
<trip id="517" depart="503" from="n43-n57" to="n53-n38"/>
<trip id="518" depart="504" from="n21-n1" to="n33-n45"/>
<trip id="519" depart="504" from="n17-n1" to="n30-n42"/>
<trip id="520" depart="506" from="n40-n29" to="n26-n37"/>