<routes>
    <vType accel="1.0" decel="5.0" id="Car" jmIgnoreKeepClearTime="100.0" maxSpeed="30" length="3" />
        
    <!--emergencyDecel="0.0"-->
    <trip id="0" depart="0" from="n17-n1" to="n13-n27"/>
<trip id="1" depart="1" from="n43-n31" to="n29-n40"/>
<trip id="2" depart="1" from="n43-n31" to="n33-n39"/>
<trip id="3" depart="2" from="n34-n22" to="n26-n37"/>
<trip id="4" depart="2" from="n42-n30" to="n33-n45"/>
<trip id="5" depart="2" from="n43-n31" to="n13-n27"/>
<trip id="6" depart="5" from="n35-n22" to="n2-n18"/>
<trip id="7" depart="9" from="n19-n3" to="n33-n45"/>
<trip id="8" depart="14" from="n27-n13" to="n31-n43"/>
<trip id="9" depart="15" from="n19-n3" to="n31-n43"/>
<trip id="10" depart="17" from="n38-n28" to="n13-n27"/>
<trip id="11" depart="18" from="n43-n31" to="n9-n25"/>
<trip id="12" depart="20" from="n21-n1" to="n3-n19"/>
<trip id="13" depart="21" from="n38-n28" to="n3-n19"/>
<trip id="14" depart="21" from="n19-n3" to="n28-n38"/>
<trip id="15" depart="22" from="n35-n22" to="n29-n41"/>
<trip id="16" depart="23" from="n43-n31" to="n3-n19"/>
<trip id="17" depart="27" from="n19-n3" to="n2-n18"/>
<trip id="18" depart="27" from="n43-n31" to="n1-n21"/>
<trip id="19" depart="30" from="n27-n13" to="n28-n38"/>
<trip id="20" depart="32" from="n27-n13" to="n31-n43"/>
<trip id="21" depart="32" from="n18-n2" to="n5-n23"/>
<trip id="22" depart="32" from="n27-n13" to="n24-n36"/>
<trip id="23" depart="33" from="n39-n33" to="n13-n27"/>
<trip id="24" depart="35" from="n19-n3" to="n33-n39"/>
<trip id="25" depart="36" from="n19-n3" to="n28-n38"/>
<trip id="26" depart="37" from="n43-n31" to="n13-n27"/>
<trip id="27" depart="37" from="n43-n31" to="n28-n38"/>
<trip id="28" depart="38" from="n19-n3" to="n1-n21"/>
<trip id="29" depart="38" from="n43-n31" to="n13-n27"/>
<trip id="30" depart="39" from="n39-n33" to="n31-n43"/>
<trip id="31" depart="39" from="n27-n13" to="n28-n38"/>
<trip id="32" depart="43" from="n42-n30" to="n31-n43"/>
<trip id="33" depart="43" from="n19-n3" to="n13-n27"/>
<trip id="34" depart="46" from="n35-n22" to="n13-n27"/>
<trip id="35" depart="47" from="n44-n32" to="n33-n39"/>
<trip id="36" depart="47" from="n27-n13" to="n22-n35"/>
<trip id="37" depart="48" from="n43-n31" to="n1-n17"/>
<trip id="38" depart="48" from="n43-n31" to="n3-n19"/>
<trip id="39" depart="48" from="n19-n3" to="n13-n27"/>
<trip id="40" depart="51" from="n27-n13" to="n3-n19"/>
<trip id="41" depart="51" from="n43-n31" to="n28-n38"/>
<trip id="42" depart="51" from="n19-n3" to="n31-n43"/>
<trip id="43" depart="54" from="n27-n13" to="n30-n42"/>
<trip id="44" depart="57" from="n43-n31" to="n13-n27"/>
<trip id="45" depart="57" from="n27-n13" to="n3-n19"/>
<trip id="46" depart="59" from="n27-n13" to="n31-n43"/>
<trip id="47" depart="61" from="n43-n31" to="n3-n19"/>
<trip id="48" depart="62" from="n27-n13" to="n31-n43"/>
<trip id="49" depart="62" from="n34-n22" to="n28-n38"/>
<trip id="50" depart="63" from="n17-n1" to="n9-n25"/>
<trip id="51" depart="63" from="n43-n31" to="n2-n18"/>
<trip id="52" depart="64" from="n43-n31" to="n28-n38"/>
<trip id="53" depart="65" from="n43-n31" to="n13-n27"/>
<trip id="54" depart="65" from="n43-n31" to="n9-n25"/>
<trip id="55" depart="67" from="n17-n1" to="n24-n36"/>
<trip id="56" depart="68" from="n19-n3" to="n28-n38"/>
<trip id="57" depart="68" from="n38-n28" to="n3-n19"/>
<trip id="58" depart="70" from="n21-n1" to="n31-n43"/>
<trip id="59" depart="70" from="n19-n3" to="n31-n43"/>
<trip id="60" depart="71" from="n43-n31" to="n28-n38"/>
<trip id="61" depart="72" from="n19-n3" to="n30-n42"/>
<trip id="62" depart="74" from="n44-n32" to="n31-n43"/>
<trip id="63" depart="75" from="n19-n3" to="n13-n27"/>
<trip id="64" depart="76" from="n19-n3" to="n31-n43"/>
<trip id="65" depart="77" from="n36-n24" to="n26-n37"/>
<trip id="66" depart="79" from="n43-n31" to="n3-n19"/>
<trip id="67" depart="80" from="n27-n13" to="n24-n36"/>
<trip id="68" depart="80" from="n19-n3" to="n31-n43"/>
<trip id="69" depart="82" from="n38-n28" to="n3-n19"/>
<trip id="70" depart="82" from="n17-n1" to="n28-n38"/>
<trip id="71" depart="83" from="n42-n30" to="n31-n43"/>
<trip id="72" depart="83" from="n42-n30" to="n32-n44"/>
<trip id="73" depart="84" from="n21-n1" to="n31-n43"/>
<trip id="74" depart="86" from="n19-n3" to="n9-n25"/>
<trip id="75" depart="87" from="n38-n28" to="n2-n18"/>
<trip id="76" depart="87" from="n19-n3" to="n1-n21"/>
<trip id="77" depart="90" from="n19-n3" to="n28-n38"/>
<trip id="78" depart="91" from="n27-n13" to="n3-n19"/>
<trip id="79" depart="96" from="n27-n13" to="n3-n19"/>
<trip id="80" depart="97" from="n43-n31" to="n33-n45"/>
<trip id="81" depart="97" from="n19-n3" to="n9-n25"/>
<trip id="82" depart="98" from="n23-n5" to="n3-n19"/>
<trip id="83" depart="99" from="n20-n4" to="n3-n19"/>
<trip id="84" depart="100" from="n27-n13" to="n28-n38"/>
<trip id="85" depart="100" from="n19-n3" to="n2-n18"/>
<trip id="86" depart="102" from="n35-n22" to="n31-n43"/>
<trip id="87" depart="102" from="n42-n30" to="n28-n38"/>
<trip id="88" depart="104" from="n43-n31" to="n3-n19"/>
<trip id="89" depart="104" from="n38-n28" to="n31-n43"/>
<trip id="90" depart="104" from="n38-n28" to="n13-n27"/>
<trip id="91" depart="104" from="n19-n3" to="n28-n38"/>
<trip id="92" depart="105" from="n43-n31" to="n3-n19"/>
<trip id="93" depart="105" from="n34-n22" to="n3-n19"/>
<trip id="94" depart="105" from="n38-n28" to="n3-n19"/>
<trip id="95" depart="107" from="n20-n4" to="n28-n38"/>
<trip id="96" depart="108" from="n20-n4" to="n3-n19"/>
<trip id="97" depart="108" from="n25-n9" to="n28-n38"/>
<trip id="98" depart="108" from="n43-n31" to="n30-n42"/>
<trip id="99" depart="109" from="n19-n3" to="n22-n35"/>
<trip id="100" depart="109" from="n19-n3" to="n24-n36"/>
<trip id="101" depart="110" from="n41-n29" to="n3-n19"/>
<trip id="102" depart="113" from="n19-n3" to="n28-n38"/>
<trip id="103" depart="113" from="n27-n13" to="n3-n19"/>
<trip id="104" depart="113" from="n39-n33" to="n31-n43"/>
<trip id="105" depart="114" from="n43-n31" to="n13-n27"/>
<trip id="106" depart="116" from="n23-n5" to="n9-n25"/>
<trip id="107" depart="116" from="n19-n3" to="n28-n38"/>
<trip id="108" depart="117" from="n19-n3" to="n24-n36"/>
<trip id="109" depart="117" from="n19-n3" to="n28-n38"/>
<trip id="110" depart="118" from="n27-n13" to="n4-n20"/>
<trip id="111" depart="119" from="n27-n13" to="n3-n19"/>
<trip id="112" depart="120" from="n38-n28" to="n31-n43"/>
<trip id="113" depart="120" from="n43-n31" to="n3-n19"/>
<trip id="114" depart="122" from="n44-n32" to="n31-n43"/>
<trip id="115" depart="123" from="n19-n3" to="n9-n25"/>
<trip id="116" depart="123" from="n43-n31" to="n28-n38"/>
<trip id="117" depart="124" from="n27-n13" to="n29-n41"/>
<trip id="118" depart="124" from="n38-n28" to="n13-n27"/>
<trip id="119" depart="125" from="n43-n31" to="n4-n20"/>
<trip id="120" depart="125" from="n34-n22" to="n13-n27"/>
<trip id="121" depart="126" from="n27-n13" to="n26-n37"/>
<trip id="122" depart="126" from="n19-n3" to="n28-n38"/>
<trip id="123" depart="126" from="n43-n31" to="n3-n19"/>
<trip id="124" depart="127" from="n38-n28" to="n13-n27"/>
<trip id="125" depart="128" from="n19-n3" to="n22-n35"/>
<trip id="126" depart="129" from="n27-n13" to="n31-n43"/>
<trip id="127" depart="129" from="n34-n22" to="n13-n27"/>
<trip id="128" depart="133" from="n19-n3" to="n31-n43"/>
<trip id="129" depart="135" from="n19-n3" to="n31-n43"/>
<trip id="130" depart="135" from="n18-n2" to="n31-n43"/>
<trip id="131" depart="138" from="n27-n13" to="n31-n43"/>
<trip id="132" depart="142" from="n39-n33" to="n13-n27"/>
<trip id="133" depart="142" from="n42-n30" to="n22-n35"/>
<trip id="134" depart="142" from="n23-n5" to="n31-n43"/>
<trip id="135" depart="142" from="n41-n29" to="n28-n38"/>
<trip id="136" depart="142" from="n39-n33" to="n3-n19"/>
<trip id="137" depart="142" from="n38-n28" to="n33-n39"/>
<trip id="138" depart="143" from="n38-n28" to="n29-n41"/>
<trip id="139" depart="143" from="n19-n3" to="n31-n43"/>
<trip id="140" depart="144" from="n43-n31" to="n5-n23"/>
<trip id="141" depart="144" from="n38-n28" to="n22-n35"/>
<trip id="142" depart="146" from="n19-n3" to="n9-n25"/>
<trip id="143" depart="147" from="n21-n1" to="n31-n43"/>
<trip id="144" depart="148" from="n19-n3" to="n13-n27"/>
<trip id="145" depart="148" from="n34-n22" to="n30-n42"/>
<trip id="146" depart="148" from="n19-n3" to="n22-n34"/>
<trip id="147" depart="148" from="n27-n13" to="n26-n37"/>
<trip id="148" depart="149" from="n25-n9" to="n4-n20"/>
<trip id="149" depart="149" from="n19-n3" to="n28-n38"/>
<trip id="150" depart="150" from="n34-n22" to="n28-n38"/>
<trip id="151" depart="151" from="n42-n30" to="n33-n45"/>
<trip id="152" depart="151" from="n39-n33" to="n28-n38"/>
<trip id="153" depart="152" from="n43-n31" to="n1-n21"/>
<trip id="154" depart="153" from="n41-n29" to="n28-n38"/>
<trip id="155" depart="154" from="n43-n31" to="n13-n27"/>
<trip id="156" depart="155" from="n36-n24" to="n3-n19"/>
<trip id="157" depart="156" from="n27-n13" to="n22-n34"/>
<trip id="158" depart="157" from="n19-n3" to="n31-n43"/>
<trip id="159" depart="159" from="n45-n33" to="n28-n38"/>
<trip id="160" depart="161" from="n41-n29" to="n33-n39"/>
<trip id="161" depart="162" from="n43-n31" to="n13-n27"/>
<trip id="162" depart="164" from="n39-n33" to="n30-n42"/>
<trip id="163" depart="164" from="n38-n28" to="n31-n43"/>
<trip id="164" depart="167" from="n27-n13" to="n5-n23"/>
<trip id="165" depart="168" from="n18-n2" to="n28-n38"/>
<trip id="166" depart="168" from="n17-n1" to="n28-n38"/>
<trip id="167" depart="168" from="n27-n13" to="n28-n38"/>
<trip id="168" depart="168" from="n43-n31" to="n3-n19"/>
<trip id="169" depart="168" from="n38-n28" to="n13-n27"/>
<trip id="170" depart="170" from="n43-n31" to="n33-n45"/>
<trip id="171" depart="171" from="n43-n31" to="n13-n27"/>
<trip id="172" depart="171" from="n19-n3" to="n28-n38"/>
<trip id="173" depart="172" from="n27-n13" to="n3-n19"/>
<trip id="174" depart="172" from="n43-n31" to="n33-n39"/>
<trip id="175" depart="173" from="n19-n3" to="n29-n40"/>
<trip id="176" depart="173" from="n44-n32" to="n3-n19"/>
<trip id="177" depart="173" from="n43-n31" to="n1-n21"/>
<trip id="178" depart="175" from="n27-n13" to="n1-n17"/>
<trip id="179" depart="176" from="n27-n13" to="n30-n42"/>
<trip id="180" depart="176" from="n37-n26" to="n33-n39"/>
<trip id="181" depart="176" from="n34-n22" to="n28-n38"/>
<trip id="182" depart="177" from="n43-n31" to="n9-n25"/>
<trip id="183" depart="178" from="n19-n3" to="n22-n35"/>
<trip id="184" depart="180" from="n38-n28" to="n13-n27"/>
<trip id="185" depart="180" from="n38-n28" to="n13-n27"/>
<trip id="186" depart="180" from="n38-n28" to="n29-n40"/>
<trip id="187" depart="182" from="n40-n29" to="n3-n19"/>
<trip id="188" depart="183" from="n19-n3" to="n31-n43"/>
<trip id="189" depart="183" from="n19-n3" to="n26-n37"/>
<trip id="190" depart="183" from="n43-n31" to="n3-n19"/>
<trip id="191" depart="185" from="n19-n3" to="n13-n27"/>
<trip id="192" depart="185" from="n40-n29" to="n9-n25"/>
<trip id="193" depart="185" from="n27-n13" to="n3-n19"/>
<trip id="194" depart="186" from="n19-n3" to="n28-n38"/>
<trip id="195" depart="188" from="n43-n31" to="n28-n38"/>
<trip id="196" depart="191" from="n38-n28" to="n3-n19"/>
<trip id="197" depart="192" from="n43-n31" to="n13-n27"/>
<trip id="198" depart="193" from="n40-n29" to="n32-n44"/>
<trip id="199" depart="194" from="n19-n3" to="n13-n27"/>
<trip id="200" depart="195" from="n19-n3" to="n1-n21"/>
<trip id="201" depart="196" from="n27-n13" to="n3-n19"/>
<trip id="202" depart="196" from="n34-n22" to="n29-n40"/>
<trip id="203" depart="198" from="n35-n22" to="n13-n27"/>
<trip id="204" depart="198" from="n38-n28" to="n29-n41"/>
<trip id="205" depart="198" from="n36-n24" to="n13-n27"/>
<trip id="206" depart="200" from="n45-n33" to="n32-n44"/>
<trip id="207" depart="200" from="n27-n13" to="n4-n20"/>
<trip id="208" depart="201" from="n19-n3" to="n31-n43"/>
<trip id="209" depart="201" from="n42-n30" to="n28-n38"/>
<trip id="210" depart="201" from="n38-n28" to="n3-n19"/>
<trip id="211" depart="202" from="n43-n31" to="n22-n34"/>
<trip id="212" depart="202" from="n20-n4" to="n3-n19"/>
<trip id="213" depart="202" from="n44-n32" to="n31-n43"/>
<trip id="214" depart="206" from="n19-n3" to="n31-n43"/>
<trip id="215" depart="206" from="n43-n31" to="n5-n23"/>
<trip id="216" depart="207" from="n43-n31" to="n32-n44"/>
<trip id="217" depart="208" from="n38-n28" to="n33-n45"/>
<trip id="218" depart="208" from="n27-n13" to="n28-n38"/>
<trip id="219" depart="210" from="n19-n3" to="n22-n34"/>
<trip id="220" depart="210" from="n43-n31" to="n33-n45"/>
<trip id="221" depart="210" from="n43-n31" to="n28-n38"/>
<trip id="222" depart="211" from="n19-n3" to="n1-n21"/>
<trip id="223" depart="211" from="n19-n3" to="n31-n43"/>
<trip id="224" depart="213" from="n43-n31" to="n4-n20"/>
<trip id="225" depart="216" from="n21-n1" to="n31-n43"/>
<trip id="226" depart="219" from="n41-n29" to="n29-n40"/>
<trip id="227" depart="221" from="n38-n28" to="n31-n43"/>
<trip id="228" depart="222" from="n21-n1" to="n28-n38"/>
<trip id="229" depart="224" from="n27-n13" to="n3-n19"/>
<trip id="230" depart="226" from="n38-n28" to="n9-n25"/>
<trip id="231" depart="226" from="n36-n24" to="n31-n43"/>
<trip id="232" depart="226" from="n37-n26" to="n3-n19"/>
<trip id="233" depart="228" from="n38-n28" to="n31-n43"/>
<trip id="234" depart="229" from="n43-n31" to="n3-n19"/>
<trip id="235" depart="230" from="n38-n28" to="n3-n19"/>
<trip id="236" depart="231" from="n43-n31" to="n13-n27"/>
<trip id="237" depart="231" from="n43-n31" to="n28-n38"/>
<trip id="238" depart="231" from="n43-n31" to="n3-n19"/>
<trip id="239" depart="233" from="n27-n13" to="n33-n45"/>
<trip id="240" depart="233" from="n36-n24" to="n31-n43"/>
<trip id="241" depart="236" from="n43-n31" to="n29-n40"/>
<trip id="242" depart="237" from="n18-n2" to="n3-n19"/>
<trip id="243" depart="238" from="n43-n31" to="n9-n25"/>
<trip id="244" depart="239" from="n43-n31" to="n26-n37"/>
<trip id="245" depart="239" from="n19-n3" to="n24-n36"/>
<trip id="246" depart="241" from="n43-n31" to="n22-n34"/>
<trip id="247" depart="242" from="n23-n5" to="n3-n19"/>
<trip id="248" depart="242" from="n19-n3" to="n29-n41"/>
<trip id="249" depart="245" from="n19-n3" to="n22-n35"/>
<trip id="250" depart="248" from="n38-n28" to="n22-n34"/>
<trip id="251" depart="249" from="n17-n1" to="n33-n39"/>
<trip id="252" depart="249" from="n34-n22" to="n31-n43"/>
<trip id="253" depart="249" from="n43-n31" to="n26-n37"/>
<trip id="254" depart="249" from="n27-n13" to="n3-n19"/>
<trip id="255" depart="249" from="n25-n9" to="n29-n40"/>
<trip id="256" depart="250" from="n20-n4" to="n22-n35"/>
<trip id="257" depart="251" from="n38-n28" to="n22-n34"/>
<trip id="258" depart="252" from="n21-n1" to="n9-n25"/>
<trip id="259" depart="252" from="n19-n3" to="n31-n43"/>
<trip id="260" depart="252" from="n43-n31" to="n28-n38"/>
<trip id="261" depart="253" from="n43-n31" to="n3-n19"/>
<trip id="262" depart="254" from="n43-n31" to="n33-n45"/>
<trip id="263" depart="254" from="n38-n28" to="n31-n43"/>
<trip id="264" depart="256" from="n38-n28" to="n3-n19"/>
<trip id="265" depart="257" from="n38-n28" to="n3-n19"/>
<trip id="266" depart="258" from="n19-n3" to="n2-n18"/>
<trip id="267" depart="259" from="n45-n33" to="n31-n43"/>
<trip id="268" depart="260" from="n38-n28" to="n26-n37"/>
<trip id="269" depart="261" from="n27-n13" to="n29-n41"/>
<trip id="270" depart="262" from="n19-n3" to="n31-n43"/>
<trip id="271" depart="263" from="n27-n13" to="n24-n36"/>
<trip id="272" depart="263" from="n43-n31" to="n3-n19"/>
<trip id="273" depart="264" from="n43-n31" to="n28-n38"/>
<trip id="274" depart="264" from="n27-n13" to="n3-n19"/>
<trip id="275" depart="265" from="n19-n3" to="n31-n43"/>
<trip id="276" depart="265" from="n34-n22" to="n31-n43"/>
<trip id="277" depart="267" from="n19-n3" to="n13-n27"/>
<trip id="278" depart="267" from="n34-n22" to="n28-n38"/>
<trip id="279" depart="271" from="n23-n5" to="n24-n36"/>
<trip id="280" depart="272" from="n38-n28" to="n31-n43"/>
<trip id="281" depart="274" from="n37-n26" to="n28-n38"/>
<trip id="282" depart="274" from="n37-n26" to="n32-n44"/>
<trip id="283" depart="275" from="n38-n28" to="n3-n19"/>
<trip id="284" depart="276" from="n41-n29" to="n31-n43"/>
<trip id="285" depart="276" from="n27-n13" to="n28-n38"/>
<trip id="286" depart="278" from="n38-n28" to="n13-n27"/>
<trip id="287" depart="280" from="n19-n3" to="n13-n27"/>
<trip id="288" depart="282" from="n19-n3" to="n31-n43"/>
<trip id="289" depart="282" from="n43-n31" to="n24-n36"/>
<trip id="290" depart="282" from="n27-n13" to="n31-n43"/>
<trip id="291" depart="282" from="n19-n3" to="n13-n27"/>
<trip id="292" depart="283" from="n27-n13" to="n3-n19"/>
<trip id="293" depart="283" from="n43-n31" to="n3-n19"/>
<trip id="294" depart="283" from="n19-n3" to="n31-n43"/>
<trip id="295" depart="285" from="n44-n32" to="n13-n27"/>
<trip id="296" depart="285" from="n43-n31" to="n13-n27"/>
<trip id="297" depart="289" from="n38-n28" to="n13-n27"/>
<trip id="298" depart="290" from="n38-n28" to="n2-n18"/>
<trip id="299" depart="290" from="n37-n26" to="n2-n18"/>
<trip id="300" depart="291" from="n19-n3" to="n28-n38"/>
<trip id="301" depart="292" from="n43-n31" to="n3-n19"/>
<trip id="302" depart="293" from="n36-n24" to="n22-n35"/>
<trip id="303" depart="294" from="n38-n28" to="n31-n43"/>
<trip id="304" depart="295" from="n42-n30" to="n28-n38"/>
<trip id="305" depart="296" from="n19-n3" to="n29-n41"/>
<trip id="306" depart="297" from="n34-n22" to="n22-n35"/>
<trip id="307" depart="299" from="n38-n28" to="n13-n27"/>
<trip id="308" depart="299" from="n20-n4" to="n32-n44"/>
<trip id="309" depart="299" from="n43-n31" to="n13-n27"/>
<trip id="310" depart="301" from="n41-n29" to="n13-n27"/>
<trip id="311" depart="301" from="n43-n31" to="n3-n19"/>
<trip id="312" depart="303" from="n27-n13" to="n31-n43"/>
<trip id="313" depart="304" from="n38-n28" to="n22-n35"/>
<trip id="314" depart="306" from="n43-n31" to="n3-n19"/>
<trip id="315" depart="306" from="n36-n24" to="n29-n40"/>
<trip id="316" depart="307" from="n19-n3" to="n28-n38"/>
<trip id="317" depart="308" from="n45-n33" to="n13-n27"/>
<trip id="318" depart="309" from="n20-n4" to="n3-n19"/>
<trip id="319" depart="311" from="n19-n3" to="n28-n38"/>
<trip id="320" depart="312" from="n27-n13" to="n31-n43"/>
<trip id="321" depart="313" from="n43-n31" to="n3-n19"/>
<trip id="322" depart="315" from="n19-n3" to="n31-n43"/>
<trip id="323" depart="315" from="n19-n3" to="n31-n43"/>
<trip id="324" depart="316" from="n27-n13" to="n3-n19"/>
<trip id="325" depart="316" from="n19-n3" to="n9-n25"/>
<trip id="326" depart="318" from="n38-n28" to="n13-n27"/>
<trip id="327" depart="319" from="n21-n1" to="n29-n41"/>
<trip id="328" depart="319" from="n43-n31" to="n13-n27"/>
<trip id="329" depart="321" from="n43-n31" to="n3-n19"/>
<trip id="330" depart="321" from="n36-n24" to="n2-n18"/>
<trip id="331" depart="323" from="n19-n3" to="n31-n43"/>
<trip id="332" depart="323" from="n43-n31" to="n24-n36"/>
<trip id="333" depart="323" from="n27-n13" to="n28-n38"/>
<trip id="334" depart="325" from="n19-n3" to="n30-n42"/>
<trip id="335" depart="326" from="n27-n13" to="n3-n19"/>
<trip id="336" depart="328" from="n19-n3" to="n13-n27"/>
<trip id="337" depart="328" from="n19-n3" to="n13-n27"/>
<trip id="338" depart="328" from="n43-n31" to="n28-n38"/>
<trip id="339" depart="331" from="n37-n26" to="n22-n34"/>
<trip id="340" depart="334" from="n17-n1" to="n4-n20"/>
<trip id="341" depart="336" from="n43-n31" to="n13-n27"/>
<trip id="342" depart="336" from="n17-n1" to="n29-n41"/>
<trip id="343" depart="336" from="n19-n3" to="n13-n27"/>
<trip id="344" depart="338" from="n27-n13" to="n9-n25"/>
<trip id="345" depart="339" from="n17-n1" to="n31-n43"/>
<trip id="346" depart="339" from="n43-n31" to="n29-n40"/>
<trip id="347" depart="339" from="n43-n31" to="n3-n19"/>
<trip id="348" depart="339" from="n19-n3" to="n29-n40"/>
<trip id="349" depart="340" from="n19-n3" to="n31-n43"/>
<trip id="350" depart="340" from="n44-n32" to="n28-n38"/>
<trip id="351" depart="341" from="n43-n31" to="n3-n19"/>
<trip id="352" depart="342" from="n43-n31" to="n3-n19"/>
<trip id="353" depart="344" from="n19-n3" to="n13-n27"/>
<trip id="354" depart="344" from="n23-n5" to="n3-n19"/>
<trip id="355" depart="345" from="n27-n13" to="n33-n39"/>
<trip id="356" depart="345" from="n34-n22" to="n28-n38"/>
<trip id="357" depart="349" from="n27-n13" to="n3-n19"/>
<trip id="358" depart="351" from="n27-n13" to="n31-n43"/>
<trip id="359" depart="352" from="n43-n31" to="n30-n42"/>
<trip id="360" depart="352" from="n21-n1" to="n31-n43"/>
<trip id="361" depart="353" from="n41-n29" to="n13-n27"/>
<trip id="362" depart="353" from="n38-n28" to="n13-n27"/>
<trip id="363" depart="354" from="n19-n3" to="n33-n45"/>
<trip id="364" depart="355" from="n27-n13" to="n31-n43"/>
<trip id="365" depart="355" from="n40-n29" to="n3-n19"/>
<trip id="366" depart="356" from="n43-n31" to="n3-n19"/>
<trip id="367" depart="358" from="n19-n3" to="n24-n36"/>
<trip id="368" depart="358" from="n23-n5" to="n3-n19"/>
<trip id="369" depart="359" from="n18-n2" to="n13-n27"/>
<trip id="370" depart="359" from="n36-n24" to="n9-n25"/>
<trip id="371" depart="360" from="n45-n33" to="n3-n19"/>
<trip id="372" depart="360" from="n34-n22" to="n13-n27"/>
<trip id="373" depart="361" from="n43-n31" to="n30-n42"/>
<trip id="374" depart="362" from="n38-n28" to="n33-n39"/>
<trip id="375" depart="362" from="n19-n3" to="n28-n38"/>
<trip id="376" depart="362" from="n27-n13" to="n1-n17"/>
<trip id="377" depart="363" from="n19-n3" to="n9-n25"/>
<trip id="378" depart="366" from="n38-n28" to="n33-n45"/>
<trip id="379" depart="366" from="n43-n31" to="n3-n19"/>
<trip id="380" depart="367" from="n43-n31" to="n13-n27"/>
<trip id="381" depart="368" from="n43-n31" to="n28-n38"/>
<trip id="382" depart="369" from="n43-n31" to="n3-n19"/>
<trip id="383" depart="373" from="n40-n29" to="n5-n23"/>
<trip id="384" depart="373" from="n19-n3" to="n26-n37"/>
<trip id="385" depart="376" from="n27-n13" to="n33-n45"/>
<trip id="386" depart="381" from="n41-n29" to="n3-n19"/>
<trip id="387" depart="382" from="n38-n28" to="n13-n27"/>
<trip id="388" depart="383" from="n18-n2" to="n13-n27"/>
<trip id="389" depart="383" from="n19-n3" to="n13-n27"/>
<trip id="390" depart="384" from="n37-n26" to="n3-n19"/>
<trip id="391" depart="384" from="n41-n29" to="n3-n19"/>
<trip id="392" depart="385" from="n19-n3" to="n4-n20"/>
<trip id="393" depart="386" from="n38-n28" to="n13-n27"/>
<trip id="394" depart="386" from="n27-n13" to="n26-n37"/>
<trip id="395" depart="386" from="n27-n13" to="n28-n38"/>
<trip id="396" depart="387" from="n43-n31" to="n9-n25"/>
<trip id="397" depart="389" from="n27-n13" to="n31-n43"/>
<trip id="398" depart="390" from="n27-n13" to="n29-n41"/>
<trip id="399" depart="390" from="n19-n3" to="n29-n40"/>
<trip id="400" depart="393" from="n19-n3" to="n30-n42"/>
<trip id="401" depart="393" from="n35-n22" to="n3-n19"/>
<trip id="402" depart="393" from="n19-n3" to="n28-n38"/>
<trip id="403" depart="394" from="n38-n28" to="n24-n36"/>
<trip id="404" depart="394" from="n19-n3" to="n13-n27"/>
<trip id="405" depart="394" from="n38-n28" to="n13-n27"/>
<trip id="406" depart="396" from="n23-n5" to="n28-n38"/>
<trip id="407" depart="398" from="n38-n28" to="n30-n42"/>
<trip id="408" depart="399" from="n38-n28" to="n24-n36"/>
<trip id="409" depart="399" from="n37-n26" to="n13-n27"/>
<trip id="410" depart="400" from="n43-n31" to="n3-n19"/>
<trip id="411" depart="402" from="n43-n31" to="n13-n27"/>
<trip id="412" depart="402" from="n38-n28" to="n3-n19"/>
<trip id="413" depart="402" from="n19-n3" to="n1-n21"/>
<trip id="414" depart="403" from="n19-n3" to="n22-n34"/>
<trip id="415" depart="404" from="n19-n3" to="n29-n40"/>
<trip id="416" depart="404" from="n21-n1" to="n26-n37"/>
<trip id="417" depart="404" from="n19-n3" to="n13-n27"/>
<trip id="418" depart="405" from="n43-n31" to="n33-n45"/>
<trip id="419" depart="408" from="n19-n3" to="n31-n43"/>
<trip id="420" depart="408" from="n43-n31" to="n22-n34"/>
<trip id="421" depart="408" from="n38-n28" to="n24-n36"/>
<trip id="422" depart="408" from="n38-n28" to="n31-n43"/>
<trip id="423" depart="408" from="n27-n13" to="n33-n39"/>
<trip id="424" depart="409" from="n25-n9" to="n31-n43"/>
<trip id="425" depart="409" from="n38-n28" to="n31-n43"/>
<trip id="426" depart="410" from="n27-n13" to="n1-n21"/>
<trip id="427" depart="412" from="n36-n24" to="n3-n19"/>
<trip id="428" depart="412" from="n37-n26" to="n2-n18"/>
<trip id="429" depart="413" from="n27-n13" to="n32-n44"/>
<trip id="430" depart="414" from="n17-n1" to="n31-n43"/>
<trip id="431" depart="415" from="n21-n1" to="n3-n19"/>
<trip id="432" depart="417" from="n27-n13" to="n5-n23"/>
<trip id="433" depart="417" from="n43-n31" to="n13-n27"/>
<trip id="434" depart="418" from="n27-n13" to="n3-n19"/>
<trip id="435" depart="419" from="n18-n2" to="n3-n19"/>
<trip id="436" depart="419" from="n40-n29" to="n28-n38"/>
<trip id="437" depart="421" from="n38-n28" to="n31-n43"/>
<trip id="438" depart="422" from="n44-n32" to="n31-n43"/>
<trip id="439" depart="422" from="n19-n3" to="n24-n36"/>
<trip id="440" depart="423" from="n37-n26" to="n33-n45"/>
<trip id="441" depart="423" from="n43-n31" to="n3-n19"/>
<trip id="442" depart="424" from="n27-n13" to="n22-n34"/>
<trip id="443" depart="425" from="n43-n31" to="n28-n38"/>
<trip id="444" depart="426" from="n38-n28" to="n9-n25"/>
<trip id="445" depart="427" from="n19-n3" to="n1-n21"/>
<trip id="446" depart="427" from="n25-n9" to="n26-n37"/>
<trip id="447" depart="428" from="n43-n31" to="n22-n34"/>
<trip id="448" depart="428" from="n35-n22" to="n28-n38"/>
<trip id="449" depart="428" from="n19-n3" to="n33-n39"/>
<trip id="450" depart="428" from="n27-n13" to="n28-n38"/>
<trip id="451" depart="430" from="n38-n28" to="n30-n42"/>
<trip id="452" depart="430" from="n38-n28" to="n31-n43"/>
<trip id="453" depart="432" from="n43-n31" to="n13-n27"/>
<trip id="454" depart="432" from="n42-n30" to="n32-n44"/>
<trip id="455" depart="434" from="n39-n33" to="n31-n43"/>
<trip id="456" depart="434" from="n40-n29" to="n32-n44"/>
<trip id="457" depart="434" from="n43-n31" to="n28-n38"/>
<trip id="458" depart="434" from="n20-n4" to="n13-n27"/>
<trip id="459" depart="435" from="n27-n13" to="n31-n43"/>
<trip id="460" depart="435" from="n19-n3" to="n28-n38"/>
<trip id="461" depart="435" from="n38-n28" to="n31-n43"/>
<trip id="462" depart="436" from="n38-n28" to="n31-n43"/>
<trip id="463" depart="436" from="n38-n28" to="n22-n34"/>
<trip id="464" depart="436" from="n18-n2" to="n30-n42"/>
<trip id="465" depart="437" from="n40-n29" to="n33-n45"/>
<trip id="466" depart="439" from="n19-n3" to="n31-n43"/>
<trip id="467" depart="440" from="n23-n5" to="n1-n17"/>
<trip id="468" depart="442" from="n17-n1" to="n3-n19"/>
<trip id="469" depart="442" from="n45-n33" to="n24-n36"/>
<trip id="470" depart="444" from="n43-n31" to="n1-n17"/>
<trip id="471" depart="445" from="n18-n2" to="n31-n43"/>
<trip id="472" depart="445" from="n34-n22" to="n33-n39"/>
<trip id="473" depart="450" from="n43-n31" to="n3-n19"/>
<trip id="474" depart="450" from="n38-n28" to="n24-n36"/>
<trip id="475" depart="451" from="n27-n13" to="n31-n43"/>
<trip id="476" depart="451" from="n43-n31" to="n29-n41"/>
<trip id="477" depart="451" from="n19-n3" to="n4-n20"/>
<trip id="478" depart="454" from="n27-n13" to="n33-n39"/>
<trip id="479" depart="454" from="n41-n29" to="n30-n42"/>
<trip id="480" depart="455" from="n34-n22" to="n28-n38"/>
<trip id="481" depart="458" from="n38-n28" to="n31-n43"/>
<trip id="482" depart="458" from="n42-n30" to="n28-n38"/>
<trip id="483" depart="459" from="n25-n9" to="n33-n39"/>
<trip id="484" depart="460" from="n27-n13" to="n5-n23"/>
<trip id="485" depart="461" from="n17-n1" to="n22-n35"/>
<trip id="486" depart="461" from="n40-n29" to="n13-n27"/>
<trip id="487" depart="461" from="n41-n29" to="n2-n18"/>
<trip id="488" depart="463" from="n36-n24" to="n3-n19"/>
<trip id="489" depart="463" from="n39-n33" to="n3-n19"/>
<trip id="490" depart="463" from="n27-n13" to="n1-n21"/>
<trip id="491" depart="465" from="n43-n31" to="n3-n19"/>
<trip id="492" depart="467" from="n19-n3" to="n29-n41"/>
<trip id="493" depart="468" from="n18-n2" to="n26-n37"/>
<trip id="494" depart="469" from="n42-n30" to="n5-n23"/>
<trip id="495" depart="470" from="n43-n31" to="n28-n38"/>
<trip id="496" depart="471" from="n20-n4" to="n26-n37"/>
<trip id="497" depart="472" from="n43-n31" to="n13-n27"/>
<trip id="498" depart="473" from="n34-n22" to="n31-n43"/>
<trip id="499" depart="473" from="n27-n13" to="n24-n36"/>
<trip id="500" depart="475" from="n27-n13" to="n29-n41"/>
<trip id="501" depart="475" from="n38-n28" to="n33-n45"/>
<trip id="502" depart="476" from="n43-n31" to="n1-n17"/>
<trip id="503" depart="477" from="n40-n29" to="n24-n36"/>
<trip id="504" depart="477" from="n38-n28" to="n32-n44"/>
<trip id="505" depart="478" from="n19-n3" to="n29-n41"/>
<trip id="506" depart="479" from="n19-n3" to="n28-n38"/>
<trip id="507" depart="480" from="n19-n3" to="n31-n43"/>
<trip id="508" depart="481" from="n18-n2" to="n3-n19"/>
<trip id="509" depart="482" from="n40-n29" to="n13-n27"/>
<trip id="510" depart="485" from="n40-n29" to="n30-n42"/>
<trip id="511" depart="485" from="n34-n22" to="n29-n40"/>
<trip id="512" depart="485" from="n37-n26" to="n31-n43"/>
<trip id="513" depart="485" from="n21-n1" to="n33-n39"/>
<trip id="514" depart="486" from="n43-n31" to="n32-n44"/>
<trip id="515" depart="488" from="n27-n13" to="n1-n17"/>
<trip id="516" depart="489" from="n39-n33" to="n28-n38"/>
<trip id="517" depart="490" from="n38-n28" to="n9-n25"/>
<trip id="518" depart="492" from="n23-n5" to="n13-n27"/>
<trip id="519" depart="494" from="n43-n31" to="n33-n39"/>
<trip id="520" depart="494" from="n27-n13" to="n28-n38"/>
<trip id="521" depart="494" from="n19-n3" to="n33-n45"/>
<trip id="522" depart="495" from="n36-n24" to="n4-n20"/>