<routes>
    <vType accel="1.0" decel="5.0" id="Car" jmIgnoreKeepClearTime="100.0" maxSpeed="30" length="3" />
        
    <!--emergencyDecel="0.0"-->
    <trip id="0" depart="0" from="n36-n24" to="n28-n38"/>
<trip id="1" depart="1" from="n39-n33" to="n29-n41"/>
<trip id="2" depart="1" from="n27-n13" to="n24-n36"/>
<trip id="3" depart="1" from="n38-n28" to="n31-n43"/>
<trip id="4" depart="2" from="n34-n22" to="n33-n39"/>
<trip id="5" depart="2" from="n40-n29" to="n33-n45"/>
<trip id="6" depart="3" from="n37-n26" to="n2-n18"/>
<trip id="7" depart="3" from="n37-n26" to="n1-n17"/>
<trip id="8" depart="4" from="n38-n28" to="n22-n34"/>
<trip id="9" depart="4" from="n40-n29" to="n24-n36"/>
<trip id="10" depart="4" from="n41-n29" to="n29-n40"/>
<trip id="11" depart="5" from="n35-n22" to="n33-n45"/>
<trip id="12" depart="5" from="n44-n32" to="n1-n21"/>
<trip id="13" depart="6" from="n20-n4" to="n28-n38"/>
<trip id="14" depart="6" from="n23-n5" to="n30-n42"/>
<trip id="15" depart="7" from="n39-n33" to="n4-n20"/>
<trip id="16" depart="8" from="n43-n31" to="n32-n44"/>
<trip id="17" depart="8" from="n18-n2" to="n28-n38"/>
<trip id="18" depart="9" from="n36-n24" to="n1-n17"/>
<trip id="19" depart="11" from="n45-n33" to="n26-n37"/>
<trip id="20" depart="11" from="n36-n24" to="n1-n21"/>
<trip id="21" depart="11" from="n25-n9" to="n3-n19"/>
<trip id="22" depart="11" from="n27-n13" to="n29-n41"/>
<trip id="23" depart="12" from="n21-n1" to="n13-n27"/>
<trip id="24" depart="12" from="n38-n28" to="n4-n20"/>
<trip id="25" depart="13" from="n37-n26" to="n22-n34"/>
<trip id="26" depart="13" from="n35-n22" to="n9-n25"/>
<trip id="27" depart="14" from="n18-n2" to="n26-n37"/>
<trip id="28" depart="15" from="n37-n26" to="n1-n17"/>
<trip id="29" depart="15" from="n40-n29" to="n2-n18"/>
<trip id="30" depart="16" from="n36-n24" to="n33-n39"/>
<trip id="31" depart="16" from="n23-n5" to="n28-n38"/>
<trip id="32" depart="16" from="n20-n4" to="n32-n44"/>
<trip id="33" depart="17" from="n41-n29" to="n1-n21"/>
<trip id="34" depart="17" from="n44-n32" to="n1-n21"/>
<trip id="35" depart="17" from="n35-n22" to="n28-n38"/>
<trip id="36" depart="18" from="n45-n33" to="n32-n44"/>
<trip id="37" depart="18" from="n20-n4" to="n33-n45"/>
<trip id="38" depart="18" from="n21-n1" to="n22-n35"/>
<trip id="39" depart="18" from="n23-n5" to="n29-n41"/>
<trip id="40" depart="18" from="n18-n2" to="n2-n18"/>
<trip id="41" depart="19" from="n20-n4" to="n5-n23"/>
<trip id="42" depart="20" from="n25-n9" to="n22-n34"/>
<trip id="43" depart="23" from="n45-n33" to="n13-n27"/>
<trip id="44" depart="24" from="n44-n32" to="n30-n42"/>
<trip id="45" depart="24" from="n27-n13" to="n30-n42"/>
<trip id="46" depart="24" from="n19-n3" to="n22-n34"/>
<trip id="47" depart="25" from="n27-n13" to="n26-n37"/>
<trip id="48" depart="25" from="n40-n29" to="n32-n44"/>
<trip id="49" depart="25" from="n27-n13" to="n32-n44"/>
<trip id="50" depart="25" from="n20-n4" to="n13-n27"/>
<trip id="51" depart="26" from="n41-n29" to="n28-n38"/>
<trip id="52" depart="27" from="n17-n1" to="n33-n39"/>
<trip id="53" depart="27" from="n42-n30" to="n1-n21"/>
<trip id="54" depart="28" from="n38-n28" to="n22-n34"/>
<trip id="55" depart="28" from="n25-n9" to="n33-n45"/>
<trip id="56" depart="29" from="n43-n31" to="n28-n38"/>
<trip id="57" depart="29" from="n40-n29" to="n2-n18"/>
<trip id="58" depart="29" from="n34-n22" to="n31-n43"/>
<trip id="59" depart="29" from="n41-n29" to="n4-n20"/>
<trip id="60" depart="29" from="n36-n24" to="n13-n27"/>
<trip id="61" depart="30" from="n18-n2" to="n26-n37"/>
<trip id="62" depart="30" from="n17-n1" to="n33-n45"/>
<trip id="63" depart="31" from="n23-n5" to="n29-n41"/>
<trip id="64" depart="31" from="n37-n26" to="n31-n43"/>
<trip id="65" depart="32" from="n42-n30" to="n4-n20"/>
<trip id="66" depart="33" from="n42-n30" to="n31-n43"/>
<trip id="67" depart="33" from="n20-n4" to="n9-n25"/>
<trip id="68" depart="34" from="n18-n2" to="n13-n27"/>
<trip id="69" depart="34" from="n35-n22" to="n24-n36"/>
<trip id="70" depart="35" from="n35-n22" to="n22-n35"/>
<trip id="71" depart="35" from="n38-n28" to="n33-n45"/>
<trip id="72" depart="36" from="n35-n22" to="n32-n44"/>
<trip id="73" depart="38" from="n39-n33" to="n2-n18"/>
<trip id="74" depart="39" from="n20-n4" to="n32-n44"/>
<trip id="75" depart="39" from="n39-n33" to="n30-n42"/>
<trip id="76" depart="40" from="n38-n28" to="n1-n21"/>
<trip id="77" depart="40" from="n36-n24" to="n4-n20"/>
<trip id="78" depart="40" from="n41-n29" to="n4-n20"/>
<trip id="79" depart="41" from="n27-n13" to="n1-n21"/>
<trip id="80" depart="41" from="n35-n22" to="n13-n27"/>
<trip id="81" depart="41" from="n19-n3" to="n30-n42"/>
<trip id="82" depart="41" from="n42-n30" to="n1-n21"/>
<trip id="83" depart="42" from="n45-n33" to="n26-n37"/>
<trip id="84" depart="42" from="n20-n4" to="n29-n41"/>
<trip id="85" depart="43" from="n40-n29" to="n22-n34"/>
<trip id="86" depart="43" from="n27-n13" to="n1-n21"/>
<trip id="87" depart="43" from="n37-n26" to="n1-n17"/>
<trip id="88" depart="44" from="n18-n2" to="n13-n27"/>
<trip id="89" depart="44" from="n42-n30" to="n1-n21"/>
<trip id="90" depart="45" from="n20-n4" to="n5-n23"/>
<trip id="91" depart="45" from="n35-n22" to="n2-n18"/>
<trip id="92" depart="46" from="n36-n24" to="n5-n23"/>
<trip id="93" depart="46" from="n40-n29" to="n1-n21"/>
<trip id="94" depart="46" from="n36-n24" to="n1-n21"/>
<trip id="95" depart="47" from="n35-n22" to="n1-n21"/>
<trip id="96" depart="47" from="n40-n29" to="n3-n19"/>
<trip id="97" depart="48" from="n19-n3" to="n24-n36"/>
<trip id="98" depart="48" from="n45-n33" to="n13-n27"/>
<trip id="99" depart="49" from="n36-n24" to="n31-n43"/>
<trip id="100" depart="49" from="n20-n4" to="n22-n34"/>
<trip id="101" depart="49" from="n38-n28" to="n3-n19"/>
<trip id="102" depart="50" from="n36-n24" to="n29-n40"/>
<trip id="103" depart="50" from="n20-n4" to="n22-n35"/>
<trip id="104" depart="50" from="n25-n9" to="n26-n37"/>
<trip id="105" depart="51" from="n19-n3" to="n28-n38"/>
<trip id="106" depart="51" from="n19-n3" to="n30-n42"/>
<trip id="107" depart="51" from="n17-n1" to="n31-n43"/>
<trip id="108" depart="52" from="n34-n22" to="n28-n38"/>
<trip id="109" depart="52" from="n23-n5" to="n5-n23"/>
<trip id="110" depart="53" from="n27-n13" to="n1-n21"/>
<trip id="111" depart="54" from="n23-n5" to="n5-n23"/>
<trip id="112" depart="54" from="n17-n1" to="n9-n25"/>
<trip id="113" depart="54" from="n40-n29" to="n29-n40"/>
<trip id="114" depart="55" from="n34-n22" to="n29-n41"/>
<trip id="115" depart="55" from="n37-n26" to="n30-n42"/>
<trip id="116" depart="56" from="n25-n9" to="n22-n34"/>
<trip id="117" depart="57" from="n44-n32" to="n30-n42"/>
<trip id="118" depart="57" from="n25-n9" to="n22-n35"/>
<trip id="119" depart="58" from="n40-n29" to="n3-n19"/>
<trip id="120" depart="58" from="n25-n9" to="n1-n17"/>
<trip id="121" depart="58" from="n40-n29" to="n3-n19"/>
<trip id="122" depart="59" from="n17-n1" to="n9-n25"/>
<trip id="123" depart="59" from="n40-n29" to="n30-n42"/>
<trip id="124" depart="62" from="n23-n5" to="n32-n44"/>
<trip id="125" depart="63" from="n35-n22" to="n22-n35"/>
<trip id="126" depart="63" from="n35-n22" to="n30-n42"/>
<trip id="127" depart="63" from="n44-n32" to="n1-n17"/>
<trip id="128" depart="64" from="n38-n28" to="n26-n37"/>
<trip id="129" depart="65" from="n19-n3" to="n30-n42"/>
<trip id="130" depart="65" from="n17-n1" to="n28-n38"/>
<trip id="131" depart="66" from="n43-n31" to="n26-n37"/>
<trip id="132" depart="66" from="n37-n26" to="n32-n44"/>
<trip id="133" depart="68" from="n34-n22" to="n33-n45"/>
<trip id="134" depart="69" from="n40-n29" to="n1-n17"/>
<trip id="135" depart="70" from="n41-n29" to="n3-n19"/>
<trip id="136" depart="71" from="n45-n33" to="n22-n35"/>
<trip id="137" depart="71" from="n17-n1" to="n30-n42"/>
<trip id="138" depart="71" from="n25-n9" to="n33-n39"/>
<trip id="139" depart="73" from="n18-n2" to="n33-n45"/>
<trip id="140" depart="73" from="n41-n29" to="n33-n45"/>
<trip id="141" depart="73" from="n38-n28" to="n32-n44"/>
<trip id="142" depart="73" from="n20-n4" to="n3-n19"/>
<trip id="143" depart="73" from="n20-n4" to="n31-n43"/>
<trip id="144" depart="75" from="n25-n9" to="n33-n39"/>
<trip id="145" depart="75" from="n18-n2" to="n33-n45"/>
<trip id="146" depart="76" from="n23-n5" to="n30-n42"/>
<trip id="147" depart="76" from="n34-n22" to="n1-n17"/>
<trip id="148" depart="76" from="n27-n13" to="n33-n45"/>
<trip id="149" depart="77" from="n42-n30" to="n5-n23"/>
<trip id="150" depart="77" from="n21-n1" to="n9-n25"/>
<trip id="151" depart="78" from="n38-n28" to="n32-n44"/>
<trip id="152" depart="79" from="n36-n24" to="n9-n25"/>
<trip id="153" depart="79" from="n19-n3" to="n24-n36"/>
<trip id="154" depart="80" from="n44-n32" to="n32-n44"/>
<trip id="155" depart="80" from="n36-n24" to="n30-n42"/>
<trip id="156" depart="80" from="n44-n32" to="n31-n43"/>
<trip id="157" depart="81" from="n35-n22" to="n22-n34"/>
<trip id="158" depart="82" from="n18-n2" to="n28-n38"/>
<trip id="159" depart="82" from="n39-n33" to="n1-n21"/>
<trip id="160" depart="83" from="n19-n3" to="n33-n45"/>
<trip id="161" depart="83" from="n35-n22" to="n22-n35"/>
<trip id="162" depart="83" from="n21-n1" to="n30-n42"/>
<trip id="163" depart="84" from="n40-n29" to="n29-n40"/>
<trip id="164" depart="84" from="n45-n33" to="n1-n21"/>
<trip id="165" depart="84" from="n23-n5" to="n29-n40"/>
<trip id="166" depart="87" from="n34-n22" to="n29-n40"/>
<trip id="167" depart="87" from="n45-n33" to="n22-n34"/>
<trip id="168" depart="87" from="n27-n13" to="n1-n21"/>
<trip id="169" depart="88" from="n35-n22" to="n32-n44"/>
<trip id="170" depart="88" from="n18-n2" to="n26-n37"/>
<trip id="171" depart="88" from="n25-n9" to="n13-n27"/>
<trip id="172" depart="88" from="n34-n22" to="n29-n40"/>
<trip id="173" depart="90" from="n45-n33" to="n30-n42"/>
<trip id="174" depart="90" from="n42-n30" to="n4-n20"/>
<trip id="175" depart="90" from="n27-n13" to="n3-n19"/>
<trip id="176" depart="91" from="n36-n24" to="n9-n25"/>
<trip id="177" depart="91" from="n34-n22" to="n26-n37"/>
<trip id="178" depart="91" from="n18-n2" to="n26-n37"/>
<trip id="179" depart="92" from="n34-n22" to="n29-n41"/>
<trip id="180" depart="93" from="n27-n13" to="n4-n20"/>
<trip id="181" depart="93" from="n40-n29" to="n2-n18"/>
<trip id="182" depart="93" from="n38-n28" to="n24-n36"/>
<trip id="183" depart="94" from="n38-n28" to="n1-n17"/>
<trip id="184" depart="95" from="n43-n31" to="n4-n20"/>
<trip id="185" depart="95" from="n45-n33" to="n29-n41"/>
<trip id="186" depart="95" from="n21-n1" to="n24-n36"/>
<trip id="187" depart="96" from="n41-n29" to="n33-n39"/>
<trip id="188" depart="96" from="n38-n28" to="n28-n38"/>
<trip id="189" depart="96" from="n34-n22" to="n9-n25"/>
<trip id="190" depart="97" from="n25-n9" to="n29-n41"/>
<trip id="191" depart="97" from="n38-n28" to="n22-n35"/>
<trip id="192" depart="97" from="n27-n13" to="n3-n19"/>
<trip id="193" depart="97" from="n23-n5" to="n33-n39"/>
<trip id="194" depart="97" from="n34-n22" to="n32-n44"/>
<trip id="195" depart="98" from="n21-n1" to="n33-n39"/>
<trip id="196" depart="99" from="n42-n30" to="n3-n19"/>
<trip id="197" depart="100" from="n45-n33" to="n30-n42"/>
<trip id="198" depart="100" from="n18-n2" to="n32-n44"/>
<trip id="199" depart="100" from="n23-n5" to="n22-n35"/>


</routes>