<routes>
    <vType accel="1.0" decel="5.0" id="Car" jmIgnoreKeepClearTime="100.0" maxSpeed="30" length="3" />
        
    <!--emergencyDecel="0.0"-->
    <trip id="0" depart="3" from="n27-n51" to="n57-n43"/>
<trip id="1" depart="5" from="n41-n29" to="n51-n27"/>
<trip id="2" depart="5" from="n43-n57" to="n54-n19"/>
<trip id="3" depart="6" from="n43-n57" to="n54-n19"/>
<trip id="4" depart="6" from="n27-n51" to="n53-n38"/>
<trip id="5" depart="7" from="n19-n54" to="n57-n43"/>
<trip id="6" depart="7" from="n19-n54" to="n51-n27"/>
<trip id="7" depart="7" from="n27-n51" to="n22-n35"/>
<trip id="8" depart="11" from="n19-n54" to="n57-n43"/>
<trip id="9" depart="11" from="n41-n29" to="n54-n19"/>
<trip id="10" depart="12" from="n38-n53" to="n54-n19"/>
<trip id="11" depart="14" from="n19-n54" to="n29-n41"/>
<trip id="12" depart="17" from="n19-n54" to="n51-n27"/>
<trip id="13" depart="19" from="n41-n29" to="n57-n43"/>
<trip id="14" depart="19" from="n43-n57" to="n54-n19"/>
<trip id="15" depart="22" from="n36-n24" to="n54-n19"/>
<trip id="16" depart="22" from="n39-n33" to="n53-n38"/>
<trip id="17" depart="23" from="n17-n1" to="n57-n43"/>
<trip id="18" depart="24" from="n43-n57" to="n29-n40"/>
<trip id="19" depart="24" from="n43-n57" to="n33-n45"/>
<trip id="20" depart="27" from="n45-n33" to="n57-n43"/>
<trip id="21" depart="27" from="n19-n54" to="n57-n43"/>
<trip id="22" depart="32" from="n27-n51" to="n57-n43"/>
<trip id="23" depart="33" from="n18-n2" to="n29-n41"/>
<trip id="24" depart="33" from="n23-n5" to="n32-n44"/>
<trip id="25" depart="34" from="n23-n5" to="n57-n43"/>
<trip id="26" depart="34" from="n43-n57" to="n53-n38"/>
<trip id="27" depart="35" from="n19-n54" to="n4-n20"/>
<trip id="28" depart="36" from="n43-n57" to="n54-n19"/>
<trip id="29" depart="37" from="n27-n51" to="n57-n43"/>
<trip id="30" depart="39" from="n25-n9" to="n29-n41"/>
<trip id="31" depart="40" from="n19-n54" to="n53-n38"/>
<trip id="32" depart="40" from="n43-n57" to="n4-n20"/>
<trip id="33" depart="43" from="n43-n57" to="n54-n19"/>
<trip id="34" depart="43" from="n43-n57" to="n54-n19"/>
<trip id="35" depart="45" from="n19-n54" to="n33-n39"/>
<trip id="36" depart="45" from="n43-n57" to="n53-n38"/>
<trip id="37" depart="45" from="n25-n9" to="n54-n19"/>
<trip id="38" depart="49" from="n43-n57" to="n32-n44"/>
<trip id="39" depart="49" from="n34-n22" to="n24-n36"/>
<trip id="40" depart="51" from="n27-n51" to="n54-n19"/>
<trip id="41" depart="51" from="n38-n53" to="n54-n19"/>
<trip id="42" depart="52" from="n19-n54" to="n57-n43"/>
<trip id="43" depart="52" from="n18-n2" to="n33-n39"/>
<trip id="44" depart="56" from="n38-n53" to="n51-n27"/>
<trip id="45" depart="56" from="n44-n32" to="n33-n45"/>
<trip id="46" depart="58" from="n19-n54" to="n57-n43"/>
<trip id="47" depart="59" from="n43-n57" to="n5-n23"/>
<trip id="48" depart="60" from="n43-n57" to="n33-n45"/>
<trip id="49" depart="60" from="n27-n51" to="n54-n19"/>
<trip id="50" depart="61" from="n19-n54" to="n57-n43"/>
<trip id="51" depart="64" from="n42-n30" to="n53-n38"/>
<trip id="52" depart="64" from="n36-n24" to="n54-n19"/>
<trip id="53" depart="65" from="n43-n57" to="n54-n19"/>
<trip id="54" depart="66" from="n19-n54" to="n57-n43"/>
<trip id="55" depart="67" from="n43-n57" to="n53-n38"/>
<trip id="56" depart="69" from="n27-n51" to="n57-n43"/>
<trip id="57" depart="69" from="n43-n57" to="n51-n27"/>
<trip id="58" depart="72" from="n19-n54" to="n57-n43"/>
<trip id="59" depart="72" from="n38-n53" to="n57-n43"/>
<trip id="60" depart="73" from="n27-n51" to="n54-n19"/>
<trip id="61" depart="74" from="n35-n22" to="n57-n43"/>
<trip id="62" depart="77" from="n38-n53" to="n57-n43"/>
<trip id="63" depart="77" from="n27-n51" to="n54-n19"/>
<trip id="64" depart="80" from="n27-n51" to="n57-n43"/>
<trip id="65" depart="80" from="n40-n29" to="n54-n19"/>
<trip id="66" depart="81" from="n27-n51" to="n53-n38"/>
<trip id="67" depart="82" from="n18-n2" to="n51-n27"/>
<trip id="68" depart="84" from="n25-n9" to="n57-n43"/>
<trip id="69" depart="87" from="n45-n33" to="n54-n19"/>
<trip id="70" depart="87" from="n43-n57" to="n4-n20"/>
<trip id="71" depart="89" from="n19-n54" to="n57-n43"/>
<trip id="72" depart="89" from="n27-n51" to="n22-n35"/>
<trip id="73" depart="91" from="n19-n54" to="n1-n21"/>
<trip id="74" depart="91" from="n43-n57" to="n54-n19"/>
<trip id="75" depart="91" from="n27-n51" to="n54-n19"/>
<trip id="76" depart="92" from="n43-n57" to="n54-n19"/>
<trip id="77" depart="92" from="n27-n51" to="n54-n19"/>
<trip id="78" depart="94" from="n19-n54" to="n57-n43"/>
<trip id="79" depart="96" from="n21-n1" to="n54-n19"/>
<trip id="80" depart="98" from="n43-n57" to="n26-n37"/>
<trip id="81" depart="98" from="n23-n5" to="n57-n43"/>
<trip id="82" depart="99" from="n43-n57" to="n32-n44"/>
<trip id="83" depart="100" from="n35-n22" to="n51-n27"/>
<trip id="84" depart="103" from="n38-n53" to="n57-n43"/>
<trip id="85" depart="103" from="n21-n1" to="n54-n19"/>
<trip id="86" depart="104" from="n19-n54" to="n22-n35"/>
<trip id="87" depart="105" from="n43-n57" to="n54-n19"/>
<trip id="88" depart="106" from="n36-n24" to="n57-n43"/>
<trip id="89" depart="108" from="n43-n57" to="n53-n38"/>
<trip id="90" depart="108" from="n43-n57" to="n32-n44"/>
<trip id="91" depart="109" from="n45-n33" to="n1-n21"/>
<trip id="92" depart="109" from="n43-n57" to="n32-n44"/>
<trip id="93" depart="112" from="n38-n53" to="n57-n43"/>
<trip id="94" depart="112" from="n43-n57" to="n51-n27"/>
<trip id="95" depart="113" from="n19-n54" to="n57-n43"/>
<trip id="96" depart="113" from="n43-n57" to="n51-n27"/>
<trip id="97" depart="114" from="n38-n53" to="n29-n40"/>
<trip id="98" depart="114" from="n27-n51" to="n53-n38"/>
<trip id="99" depart="115" from="n43-n57" to="n32-n44"/>
<trip id="100" depart="116" from="n45-n33" to="n57-n43"/>
<trip id="101" depart="117" from="n43-n57" to="n30-n42"/>
<trip id="102" depart="117" from="n39-n33" to="n57-n43"/>
<trip id="103" depart="118" from="n38-n53" to="n22-n34"/>
<trip id="104" depart="121" from="n25-n9" to="n54-n19"/>
<trip id="105" depart="123" from="n43-n57" to="n5-n23"/>
<trip id="106" depart="126" from="n38-n53" to="n5-n23"/>
<trip id="107" depart="128" from="n43-n57" to="n53-n38"/>
<trip id="108" depart="129" from="n19-n54" to="n51-n27"/>
<trip id="109" depart="131" from="n38-n53" to="n33-n45"/>
<trip id="110" depart="131" from="n17-n1" to="n53-n38"/>
<trip id="111" depart="134" from="n45-n33" to="n57-n43"/>
<trip id="112" depart="135" from="n19-n54" to="n51-n27"/>
<trip id="113" depart="137" from="n25-n9" to="n54-n19"/>
<trip id="114" depart="137" from="n38-n53" to="n54-n19"/>
<trip id="115" depart="140" from="n27-n51" to="n4-n20"/>
<trip id="116" depart="140" from="n27-n51" to="n57-n43"/>
<trip id="117" depart="141" from="n19-n54" to="n53-n38"/>
<trip id="118" depart="144" from="n23-n5" to="n51-n27"/>
<trip id="119" depart="145" from="n38-n53" to="n54-n19"/>
<trip id="120" depart="147" from="n19-n54" to="n51-n27"/>
<trip id="121" depart="150" from="n39-n33" to="n22-n35"/>
<trip id="122" depart="151" from="n44-n32" to="n54-n19"/>
<trip id="123" depart="152" from="n19-n54" to="n30-n42"/>
<trip id="124" depart="153" from="n43-n57" to="n33-n45"/>
<trip id="125" depart="154" from="n21-n1" to="n57-n43"/>
<trip id="126" depart="156" from="n23-n5" to="n29-n40"/>
<trip id="127" depart="156" from="n27-n51" to="n33-n39"/>
<trip id="128" depart="159" from="n38-n53" to="n51-n27"/>
<trip id="129" depart="159" from="n43-n57" to="n22-n34"/>
<trip id="130" depart="159" from="n19-n54" to="n51-n27"/>
<trip id="131" depart="160" from="n43-n57" to="n54-n19"/>
<trip id="132" depart="160" from="n38-n53" to="n57-n43"/>
<trip id="133" depart="163" from="n25-n9" to="n57-n43"/>
<trip id="134" depart="163" from="n25-n9" to="n54-n19"/>
<trip id="135" depart="165" from="n27-n51" to="n4-n20"/>
<trip id="136" depart="165" from="n17-n1" to="n54-n19"/>
<trip id="137" depart="165" from="n38-n53" to="n57-n43"/>
<trip id="138" depart="169" from="n43-n57" to="n53-n38"/>
<trip id="139" depart="171" from="n38-n53" to="n51-n27"/>
<trip id="140" depart="173" from="n20-n4" to="n57-n43"/>
<trip id="141" depart="174" from="n19-n54" to="n53-n38"/>
<trip id="142" depart="175" from="n34-n22" to="n51-n27"/>
<trip id="143" depart="175" from="n40-n29" to="n2-n18"/>
<trip id="144" depart="176" from="n27-n51" to="n1-n17"/>
<trip id="145" depart="177" from="n43-n57" to="n54-n19"/>
<trip id="146" depart="177" from="n27-n51" to="n1-n17"/>
<trip id="147" depart="177" from="n35-n22" to="n53-n38"/>
<trip id="148" depart="181" from="n43-n57" to="n9-n25"/>
<trip id="149" depart="186" from="n38-n53" to="n33-n39"/>
<trip id="150" depart="187" from="n43-n57" to="n22-n35"/>
<trip id="151" depart="188" from="n39-n33" to="n54-n19"/>
<trip id="152" depart="189" from="n38-n53" to="n1-n17"/>
<trip id="153" depart="190" from="n27-n51" to="n53-n38"/>
<trip id="154" depart="191" from="n43-n57" to="n53-n38"/>
<trip id="155" depart="192" from="n38-n53" to="n57-n43"/>
<trip id="156" depart="193" from="n40-n29" to="n54-n19"/>
<trip id="157" depart="197" from="n20-n4" to="n51-n27"/>
<trip id="158" depart="197" from="n19-n54" to="n57-n43"/>
<trip id="159" depart="198" from="n18-n2" to="n29-n40"/>
<trip id="160" depart="204" from="n41-n29" to="n57-n43"/>
<trip id="161" depart="204" from="n43-n57" to="n29-n40"/>
<trip id="162" depart="205" from="n43-n57" to="n51-n27"/>
<trip id="163" depart="206" from="n43-n57" to="n1-n17"/>
<trip id="164" depart="212" from="n43-n57" to="n33-n45"/>
<trip id="165" depart="212" from="n38-n53" to="n26-n37"/>
<trip id="166" depart="214" from="n43-n57" to="n54-n19"/>
<trip id="167" depart="215" from="n17-n1" to="n29-n40"/>
<trip id="168" depart="217" from="n19-n54" to="n53-n38"/>
<trip id="169" depart="218" from="n27-n51" to="n57-n43"/>
<trip id="170" depart="220" from="n19-n54" to="n51-n27"/>
<trip id="171" depart="223" from="n40-n29" to="n54-n19"/>
<trip id="172" depart="223" from="n19-n54" to="n51-n27"/>
<trip id="173" depart="224" from="n39-n33" to="n29-n40"/>
<trip id="174" depart="225" from="n19-n54" to="n4-n20"/>
<trip id="175" depart="225" from="n27-n51" to="n22-n35"/>
<trip id="176" depart="225" from="n36-n24" to="n57-n43"/>
<trip id="177" depart="228" from="n19-n54" to="n53-n38"/>
<trip id="178" depart="228" from="n23-n5" to="n33-n45"/>
<trip id="179" depart="228" from="n38-n53" to="n57-n43"/>
<trip id="180" depart="229" from="n43-n57" to="n54-n19"/>
<trip id="181" depart="229" from="n43-n57" to="n33-n45"/>
<trip id="182" depart="230" from="n43-n57" to="n2-n18"/>
<trip id="183" depart="230" from="n38-n53" to="n54-n19"/>
<trip id="184" depart="231" from="n27-n51" to="n1-n21"/>
<trip id="185" depart="232" from="n19-n54" to="n57-n43"/>
<trip id="186" depart="235" from="n38-n53" to="n30-n42"/>
<trip id="187" depart="235" from="n19-n54" to="n5-n23"/>
<trip id="188" depart="236" from="n40-n29" to="n22-n34"/>
<trip id="189" depart="237" from="n38-n53" to="n54-n19"/>
<trip id="190" depart="238" from="n27-n51" to="n22-n35"/>
<trip id="191" depart="239" from="n27-n51" to="n53-n38"/>
<trip id="192" depart="239" from="n27-n51" to="n54-n19"/>
<trip id="193" depart="242" from="n27-n51" to="n54-n19"/>
<trip id="194" depart="244" from="n27-n51" to="n53-n38"/>
<trip id="195" depart="244" from="n38-n53" to="n9-n25"/>
<trip id="196" depart="245" from="n17-n1" to="n54-n19"/>
<trip id="197" depart="245" from="n19-n54" to="n57-n43"/>
<trip id="198" depart="245" from="n25-n9" to="n57-n43"/>
<trip id="199" depart="247" from="n27-n51" to="n1-n17"/>
<trip id="200" depart="248" from="n19-n54" to="n1-n17"/>
<trip id="201" depart="252" from="n21-n1" to="n29-n40"/>
<trip id="202" depart="252" from="n43-n57" to="n54-n19"/>
<trip id="203" depart="253" from="n41-n29" to="n53-n38"/>
<trip id="204" depart="255" from="n20-n4" to="n54-n19"/>
<trip id="205" depart="255" from="n27-n51" to="n1-n17"/>
<trip id="206" depart="256" from="n36-n24" to="n1-n17"/>
<trip id="207" depart="257" from="n36-n24" to="n33-n39"/>
<trip id="208" depart="257" from="n25-n9" to="n1-n17"/>
<trip id="209" depart="259" from="n43-n57" to="n51-n27"/>
<trip id="210" depart="263" from="n43-n57" to="n54-n19"/>
<trip id="211" depart="263" from="n44-n32" to="n57-n43"/>
<trip id="212" depart="265" from="n34-n22" to="n57-n43"/>
<trip id="213" depart="266" from="n43-n57" to="n54-n19"/>
<trip id="214" depart="267" from="n38-n53" to="n57-n43"/>
<trip id="215" depart="267" from="n19-n54" to="n1-n21"/>
<trip id="216" depart="270" from="n19-n54" to="n57-n43"/>
<trip id="217" depart="271" from="n19-n54" to="n32-n44"/>
<trip id="218" depart="274" from="n19-n54" to="n1-n17"/>
<trip id="219" depart="275" from="n36-n24" to="n53-n38"/>
<trip id="220" depart="279" from="n43-n57" to="n53-n38"/>
<trip id="221" depart="280" from="n27-n51" to="n57-n43"/>
<trip id="222" depart="280" from="n27-n51" to="n1-n21"/>
<trip id="223" depart="284" from="n21-n1" to="n1-n17"/>
<trip id="224" depart="284" from="n27-n51" to="n22-n34"/>
<trip id="225" depart="286" from="n43-n57" to="n5-n23"/>
<trip id="226" depart="286" from="n21-n1" to="n51-n27"/>
<trip id="227" depart="287" from="n19-n54" to="n51-n27"/>
<trip id="228" depart="288" from="n27-n51" to="n29-n41"/>
<trip id="229" depart="289" from="n19-n54" to="n57-n43"/>
<trip id="230" depart="289" from="n38-n53" to="n57-n43"/>
<trip id="231" depart="294" from="n19-n54" to="n32-n44"/>
<trip id="232" depart="294" from="n34-n22" to="n53-n38"/>
<trip id="233" depart="296" from="n38-n53" to="n33-n39"/>
<trip id="234" depart="300" from="n38-n53" to="n9-n25"/>
<trip id="235" depart="302" from="n43-n57" to="n1-n17"/>
<trip id="236" depart="302" from="n38-n53" to="n33-n45"/>
<trip id="237" depart="305" from="n19-n54" to="n51-n27"/>
<trip id="238" depart="305" from="n19-n54" to="n57-n43"/>
<trip id="239" depart="306" from="n18-n2" to="n24-n36"/>
<trip id="240" depart="307" from="n18-n2" to="n53-n38"/>
<trip id="241" depart="308" from="n36-n24" to="n51-n27"/>
<trip id="242" depart="308" from="n38-n53" to="n5-n23"/>
<trip id="243" depart="308" from="n43-n57" to="n54-n19"/>
<trip id="244" depart="309" from="n35-n22" to="n57-n43"/>
<trip id="245" depart="309" from="n43-n57" to="n51-n27"/>
<trip id="246" depart="311" from="n43-n57" to="n33-n45"/>
<trip id="247" depart="311" from="n27-n51" to="n57-n43"/>
<trip id="248" depart="311" from="n43-n57" to="n51-n27"/>
<trip id="249" depart="313" from="n27-n51" to="n22-n35"/>
<trip id="250" depart="317" from="n43-n57" to="n30-n42"/>
<trip id="251" depart="318" from="n38-n53" to="n26-n37"/>
<trip id="252" depart="318" from="n40-n29" to="n51-n27"/>
<trip id="253" depart="318" from="n21-n1" to="n54-n19"/>
<trip id="254" depart="321" from="n19-n54" to="n33-n45"/>
<trip id="255" depart="322" from="n27-n51" to="n53-n38"/>
<trip id="256" depart="323" from="n19-n54" to="n51-n27"/>
<trip id="257" depart="324" from="n45-n33" to="n29-n41"/>
<trip id="258" depart="326" from="n18-n2" to="n53-n38"/>
<trip id="259" depart="327" from="n43-n57" to="n22-n34"/>
<trip id="260" depart="330" from="n39-n33" to="n22-n35"/>
<trip id="261" depart="330" from="n18-n2" to="n54-n19"/>
<trip id="262" depart="331" from="n43-n57" to="n51-n27"/>
<trip id="263" depart="336" from="n17-n1" to="n51-n27"/>
<trip id="264" depart="336" from="n19-n54" to="n33-n45"/>
<trip id="265" depart="337" from="n27-n51" to="n53-n38"/>
<trip id="266" depart="344" from="n19-n54" to="n29-n40"/>
<trip id="267" depart="346" from="n43-n57" to="n54-n19"/>
<trip id="268" depart="347" from="n43-n57" to="n51-n27"/>
<trip id="269" depart="349" from="n19-n54" to="n30-n42"/>
<trip id="270" depart="349" from="n38-n53" to="n9-n25"/>
<trip id="271" depart="351" from="n20-n4" to="n57-n43"/>
<trip id="272" depart="352" from="n27-n51" to="n53-n38"/>
<trip id="273" depart="353" from="n17-n1" to="n54-n19"/>
<trip id="274" depart="356" from="n19-n54" to="n32-n44"/>
<trip id="275" depart="360" from="n19-n54" to="n53-n38"/>
<trip id="276" depart="361" from="n36-n24" to="n57-n43"/>
<trip id="277" depart="363" from="n17-n1" to="n54-n19"/>
<trip id="278" depart="364" from="n27-n51" to="n53-n38"/>
<trip id="279" depart="364" from="n27-n51" to="n53-n38"/>
<trip id="280" depart="365" from="n27-n51" to="n57-n43"/>
<trip id="281" depart="367" from="n38-n53" to="n29-n41"/>
<trip id="282" depart="368" from="n20-n4" to="n57-n43"/>
<trip id="283" depart="368" from="n25-n9" to="n54-n19"/>
<trip id="284" depart="370" from="n41-n29" to="n53-n38"/>
<trip id="285" depart="372" from="n19-n54" to="n57-n43"/>
<trip id="286" depart="374" from="n44-n32" to="n57-n43"/>
<trip id="287" depart="375" from="n35-n22" to="n32-n44"/>
<trip id="288" depart="376" from="n38-n53" to="n54-n19"/>
<trip id="289" depart="377" from="n27-n51" to="n9-n25"/>
<trip id="290" depart="378" from="n27-n51" to="n54-n19"/>
<trip id="291" depart="378" from="n42-n30" to="n57-n43"/>
<trip id="292" depart="378" from="n43-n57" to="n24-n36"/>
<trip id="293" depart="378" from="n19-n54" to="n57-n43"/>
<trip id="294" depart="381" from="n19-n54" to="n33-n45"/>
<trip id="295" depart="383" from="n37-n26" to="n53-n38"/>
<trip id="296" depart="383" from="n41-n29" to="n51-n27"/>
<trip id="297" depart="385" from="n36-n24" to="n29-n41"/>
<trip id="298" depart="385" from="n41-n29" to="n51-n27"/>
<trip id="299" depart="389" from="n38-n53" to="n51-n27"/>
<trip id="300" depart="389" from="n43-n57" to="n54-n19"/>
<trip id="301" depart="390" from="n27-n51" to="n54-n19"/>
<trip id="302" depart="390" from="n38-n53" to="n4-n20"/>
<trip id="303" depart="394" from="n38-n53" to="n54-n19"/>
<trip id="304" depart="395" from="n44-n32" to="n29-n40"/>
<trip id="305" depart="396" from="n27-n51" to="n54-n19"/>
<trip id="306" depart="396" from="n43-n57" to="n51-n27"/>
<trip id="307" depart="396" from="n40-n29" to="n53-n38"/>
<trip id="308" depart="396" from="n23-n5" to="n54-n19"/>
<trip id="309" depart="397" from="n44-n32" to="n53-n38"/>
<trip id="310" depart="397" from="n38-n53" to="n26-n37"/>
<trip id="311" depart="400" from="n19-n54" to="n4-n20"/>
<trip id="312" depart="402" from="n43-n57" to="n53-n38"/>
<trip id="313" depart="404" from="n40-n29" to="n57-n43"/>
<trip id="314" depart="404" from="n19-n54" to="n57-n43"/>
<trip id="315" depart="406" from="n18-n2" to="n54-n19"/>
<trip id="316" depart="406" from="n38-n53" to="n57-n43"/>
<trip id="317" depart="406" from="n43-n57" to="n1-n17"/>
<trip id="318" depart="408" from="n38-n53" to="n9-n25"/>
<trip id="319" depart="408" from="n43-n57" to="n53-n38"/>
<trip id="320" depart="410" from="n19-n54" to="n53-n38"/>
<trip id="321" depart="411" from="n23-n5" to="n54-n19"/>
<trip id="322" depart="412" from="n43-n57" to="n54-n19"/>
<trip id="323" depart="415" from="n43-n57" to="n51-n27"/>
<trip id="324" depart="420" from="n43-n57" to="n22-n35"/>
<trip id="325" depart="421" from="n38-n53" to="n51-n27"/>
<trip id="326" depart="424" from="n21-n1" to="n54-n19"/>
<trip id="327" depart="425" from="n43-n57" to="n51-n27"/>
<trip id="328" depart="426" from="n19-n54" to="n29-n41"/>
<trip id="329" depart="427" from="n19-n54" to="n57-n43"/>
<trip id="330" depart="428" from="n44-n32" to="n53-n38"/>
<trip id="331" depart="428" from="n38-n53" to="n33-n45"/>
<trip id="332" depart="434" from="n27-n51" to="n54-n19"/>
<trip id="333" depart="435" from="n43-n57" to="n54-n19"/>
<trip id="334" depart="439" from="n17-n1" to="n54-n19"/>
<trip id="335" depart="440" from="n38-n53" to="n26-n37"/>
<trip id="336" depart="440" from="n27-n51" to="n54-n19"/>
<trip id="337" depart="441" from="n19-n54" to="n26-n37"/>
<trip id="338" depart="441" from="n27-n51" to="n54-n19"/>
<trip id="339" depart="442" from="n43-n57" to="n51-n27"/>
<trip id="340" depart="442" from="n20-n4" to="n33-n39"/>
<trip id="341" depart="448" from="n34-n22" to="n24-n36"/>
<trip id="342" depart="448" from="n27-n51" to="n53-n38"/>
<trip id="343" depart="450" from="n27-n51" to="n53-n38"/>
<trip id="344" depart="450" from="n38-n53" to="n57-n43"/>
<trip id="345" depart="450" from="n43-n57" to="n53-n38"/>
<trip id="346" depart="452" from="n43-n57" to="n53-n38"/>
<trip id="347" depart="454" from="n19-n54" to="n57-n43"/>
<trip id="348" depart="455" from="n36-n24" to="n51-n27"/>
<trip id="349" depart="457" from="n19-n54" to="n1-n17"/>
<trip id="350" depart="459" from="n43-n57" to="n4-n20"/>
<trip id="351" depart="460" from="n34-n22" to="n53-n38"/>
<trip id="352" depart="460" from="n43-n57" to="n54-n19"/>
<trip id="353" depart="460" from="n43-n57" to="n4-n20"/>
<trip id="354" depart="460" from="n38-n53" to="n54-n19"/>
<trip id="355" depart="461" from="n19-n54" to="n32-n44"/>
<trip id="356" depart="463" from="n23-n5" to="n29-n41"/>
<trip id="357" depart="464" from="n43-n57" to="n54-n19"/>
<trip id="358" depart="464" from="n20-n4" to="n53-n38"/>
<trip id="359" depart="465" from="n19-n54" to="n53-n38"/>
<trip id="360" depart="465" from="n27-n51" to="n57-n43"/>
<trip id="361" depart="468" from="n45-n33" to="n57-n43"/>
<trip id="362" depart="469" from="n19-n54" to="n5-n23"/>
<trip id="363" depart="470" from="n19-n54" to="n51-n27"/>
<trip id="364" depart="470" from="n27-n51" to="n53-n38"/>
<trip id="365" depart="471" from="n43-n57" to="n54-n19"/>
<trip id="366" depart="473" from="n25-n9" to="n29-n41"/>
<trip id="367" depart="473" from="n27-n51" to="n54-n19"/>
<trip id="368" depart="476" from="n44-n32" to="n57-n43"/>
<trip id="369" depart="477" from="n39-n33" to="n53-n38"/>
<trip id="370" depart="480" from="n43-n57" to="n51-n27"/>
<trip id="371" depart="480" from="n43-n57" to="n53-n38"/>
<trip id="372" depart="483" from="n39-n33" to="n53-n38"/>
<trip id="373" depart="483" from="n19-n54" to="n57-n43"/>
<trip id="374" depart="485" from="n19-n54" to="n57-n43"/>
<trip id="375" depart="486" from="n19-n54" to="n51-n27"/>
<trip id="376" depart="488" from="n27-n51" to="n53-n38"/>
<trip id="377" depart="488" from="n41-n29" to="n53-n38"/>
<trip id="378" depart="488" from="n27-n51" to="n22-n35"/>
<trip id="379" depart="489" from="n38-n53" to="n54-n19"/>
<trip id="380" depart="490" from="n19-n54" to="n4-n20"/>
<trip id="381" depart="493" from="n38-n53" to="n30-n42"/>
<trip id="382" depart="494" from="n19-n54" to="n51-n27"/>
<trip id="383" depart="495" from="n23-n5" to="n2-n18"/>
<trip id="384" depart="496" from="n45-n33" to="n51-n27"/>
<trip id="385" depart="498" from="n41-n29" to="n54-n19"/>
<trip id="386" depart="499" from="n43-n57" to="n54-n19"/>
<trip id="387" depart="503" from="n19-n54" to="n57-n43"/>
<trip id="388" depart="504" from="n17-n1" to="n57-n43"/>
<trip id="389" depart="508" from="n27-n51" to="n29-n40"/>
<trip id="390" depart="510" from="n19-n54" to="n53-n38"/>
<trip id="391" depart="512" from="n20-n4" to="n51-n27"/>
<trip id="392" depart="513" from="n19-n54" to="n53-n38"/>
<trip id="393" depart="514" from="n19-n54" to="n29-n41"/>
<trip id="394" depart="514" from="n38-n53" to="n1-n17"/>
<trip id="395" depart="514" from="n38-n53" to="n57-n43"/>
<trip id="396" depart="517" from="n38-n53" to="n51-n27"/>
<trip id="397" depart="517" from="n39-n33" to="n33-n45"/>
<trip id="398" depart="518" from="n19-n54" to="n53-n38"/>
<trip id="399" depart="519" from="n27-n51" to="n54-n19"/>
<trip id="400" depart="520" from="n41-n29" to="n24-n36"/>
<trip id="401" depart="521" from="n36-n24" to="n1-n21"/>
<trip id="402" depart="523" from="n43-n57" to="n24-n36"/>
<trip id="403" depart="524" from="n27-n51" to="n53-n38"/>
<trip id="404" depart="525" from="n19-n54" to="n1-n17"/>
<trip id="405" depart="526" from="n20-n4" to="n24-n36"/>
<trip id="406" depart="526" from="n38-n53" to="n5-n23"/>
<trip id="407" depart="528" from="n43-n57" to="n51-n27"/>
<trip id="408" depart="531" from="n27-n51" to="n57-n43"/>
<trip id="409" depart="534" from="n42-n30" to="n54-n19"/>
<trip id="410" depart="535" from="n38-n53" to="n51-n27"/>
<trip id="411" depart="538" from="n38-n53" to="n54-n19"/>
<trip id="412" depart="539" from="n43-n57" to="n53-n38"/>
<trip id="413" depart="540" from="n21-n1" to="n51-n27"/>
<trip id="414" depart="541" from="n27-n51" to="n30-n42"/>
<trip id="415" depart="542" from="n21-n1" to="n51-n27"/>
<trip id="416" depart="543" from="n25-n9" to="n54-n19"/>
<trip id="417" depart="546" from="n38-n53" to="n24-n36"/>
<trip id="418" depart="547" from="n38-n53" to="n57-n43"/>
<trip id="419" depart="548" from="n40-n29" to="n54-n19"/>
<trip id="420" depart="554" from="n37-n26" to="n57-n43"/>
<trip id="421" depart="557" from="n27-n51" to="n53-n38"/>
<trip id="422" depart="559" from="n25-n9" to="n53-n38"/>
<trip id="423" depart="559" from="n45-n33" to="n51-n27"/>
<trip id="424" depart="561" from="n38-n53" to="n54-n19"/>
<trip id="425" depart="561" from="n20-n4" to="n32-n44"/>
<trip id="426" depart="565" from="n19-n54" to="n51-n27"/>
<trip id="427" depart="570" from="n35-n22" to="n57-n43"/>
<trip id="428" depart="570" from="n42-n30" to="n24-n36"/>
<trip id="429" depart="571" from="n43-n57" to="n51-n27"/>
<trip id="430" depart="576" from="n27-n51" to="n22-n35"/>
<trip id="431" depart="577" from="n17-n1" to="n29-n40"/>
<trip id="432" depart="578" from="n39-n33" to="n29-n41"/>
<trip id="433" depart="579" from="n40-n29" to="n54-n19"/>
<trip id="434" depart="579" from="n19-n54" to="n2-n18"/>
<trip id="435" depart="582" from="n43-n57" to="n5-n23"/>
<trip id="436" depart="582" from="n45-n33" to="n22-n35"/>
<trip id="437" depart="582" from="n43-n57" to="n51-n27"/>
<trip id="438" depart="582" from="n27-n51" to="n2-n18"/>
<trip id="439" depart="585" from="n38-n53" to="n29-n41"/>
<trip id="440" depart="586" from="n19-n54" to="n51-n27"/>
<trip id="441" depart="587" from="n19-n54" to="n22-n34"/>
<trip id="442" depart="589" from="n40-n29" to="n51-n27"/>
<trip id="443" depart="591" from="n19-n54" to="n57-n43"/>
<trip id="444" depart="591" from="n42-n30" to="n51-n27"/>
<trip id="445" depart="592" from="n17-n1" to="n29-n41"/>
<trip id="446" depart="593" from="n43-n57" to="n51-n27"/>
<trip id="447" depart="593" from="n23-n5" to="n53-n38"/>
<trip id="448" depart="593" from="n34-n22" to="n9-n25"/>
<trip id="449" depart="595" from="n41-n29" to="n9-n25"/>
<trip id="450" depart="598" from="n18-n2" to="n33-n39"/>
<trip id="451" depart="599" from="n20-n4" to="n54-n19"/>
<trip id="452" depart="600" from="n45-n33" to="n57-n43"/>
<trip id="453" depart="600" from="n20-n4" to="n51-n27"/>
<trip id="454" depart="602" from="n27-n51" to="n57-n43"/>
<trip id="455" depart="605" from="n27-n51" to="n53-n38"/>
<trip id="456" depart="607" from="n38-n53" to="n5-n23"/>
<trip id="457" depart="608" from="n38-n53" to="n22-n35"/>
<trip id="458" depart="609" from="n19-n54" to="n51-n27"/>
<trip id="459" depart="609" from="n44-n32" to="n2-n18"/>
<trip id="460" depart="610" from="n27-n51" to="n5-n23"/>
<trip id="461" depart="612" from="n23-n5" to="n29-n40"/>
<trip id="462" depart="613" from="n18-n2" to="n51-n27"/>
<trip id="463" depart="614" from="n43-n57" to="n4-n20"/>
<trip id="464" depart="615" from="n43-n57" to="n9-n25"/>
<trip id="465" depart="618" from="n19-n54" to="n22-n35"/>
<trip id="466" depart="622" from="n38-n53" to="n51-n27"/>
<trip id="467" depart="623" from="n19-n54" to="n57-n43"/>
<trip id="468" depart="623" from="n27-n51" to="n54-n19"/>
<trip id="469" depart="625" from="n43-n57" to="n54-n19"/>
<trip id="470" depart="629" from="n34-n22" to="n57-n43"/>
<trip id="471" depart="631" from="n38-n53" to="n51-n27"/>
<trip id="472" depart="631" from="n27-n51" to="n5-n23"/>
<trip id="473" depart="631" from="n27-n51" to="n54-n19"/>
<trip id="474" depart="632" from="n38-n53" to="n29-n40"/>
<trip id="475" depart="633" from="n38-n53" to="n33-n39"/>
<trip id="476" depart="633" from="n27-n51" to="n54-n19"/>
<trip id="477" depart="635" from="n25-n9" to="n57-n43"/>
<trip id="478" depart="635" from="n38-n53" to="n22-n34"/>
<trip id="479" depart="636" from="n43-n57" to="n51-n27"/>
<trip id="480" depart="637" from="n27-n51" to="n57-n43"/>
<trip id="481" depart="642" from="n27-n51" to="n57-n43"/>
<trip id="482" depart="643" from="n43-n57" to="n5-n23"/>
<trip id="483" depart="643" from="n43-n57" to="n54-n19"/>
<trip id="484" depart="644" from="n35-n22" to="n54-n19"/>
<trip id="485" depart="645" from="n19-n54" to="n32-n44"/>
<trip id="486" depart="645" from="n19-n54" to="n32-n44"/>
<trip id="487" depart="651" from="n27-n51" to="n26-n37"/>
<trip id="488" depart="651" from="n27-n51" to="n2-n18"/>
<trip id="489" depart="651" from="n21-n1" to="n53-n38"/>
<trip id="490" depart="651" from="n17-n1" to="n54-n19"/>
<trip id="491" depart="652" from="n20-n4" to="n57-n43"/>
<trip id="492" depart="652" from="n20-n4" to="n53-n38"/>
<trip id="493" depart="657" from="n38-n53" to="n51-n27"/>
<trip id="494" depart="658" from="n19-n54" to="n4-n20"/>
<trip id="495" depart="658" from="n19-n54" to="n57-n43"/>
<trip id="496" depart="658" from="n21-n1" to="n57-n43"/>
<trip id="497" depart="660" from="n38-n53" to="n54-n19"/>
<trip id="498" depart="660" from="n19-n54" to="n51-n27"/>
<trip id="499" depart="660" from="n39-n33" to="n54-n19"/>
<trip id="500" depart="662" from="n27-n51" to="n57-n43"/>
<trip id="501" depart="662" from="n43-n57" to="n53-n38"/>
<trip id="502" depart="663" from="n38-n53" to="n51-n27"/>
<trip id="503" depart="666" from="n20-n4" to="n57-n43"/>
<trip id="504" depart="667" from="n25-n9" to="n57-n43"/>
<trip id="505" depart="667" from="n19-n54" to="n57-n43"/>
<trip id="506" depart="668" from="n35-n22" to="n53-n38"/>
<trip id="507" depart="669" from="n27-n51" to="n53-n38"/>
<trip id="508" depart="670" from="n19-n54" to="n57-n43"/>
<trip id="509" depart="670" from="n43-n57" to="n51-n27"/>
<trip id="510" depart="672" from="n38-n53" to="n54-n19"/>
<trip id="511" depart="674" from="n27-n51" to="n54-n19"/>
<trip id="512" depart="675" from="n27-n51" to="n54-n19"/>
<trip id="513" depart="677" from="n43-n57" to="n54-n19"/>
<trip id="514" depart="678" from="n19-n54" to="n57-n43"/>
<trip id="515" depart="681" from="n19-n54" to="n22-n35"/>
<trip id="516" depart="681" from="n19-n54" to="n57-n43"/>
<trip id="517" depart="682" from="n38-n53" to="n57-n43"/>
<trip id="518" depart="683" from="n18-n2" to="n54-n19"/>
<trip id="519" depart="683" from="n25-n9" to="n22-n35"/>