<routes>
    <vType accel="1.0" decel="5.0" id="Car" jmIgnoreKeepClearTime="100.0" maxSpeed="30" length="3" />
        
    <!--emergencyDecel="0.0"-->
    <trip id="0" depart="0" from="n25-n9" to="n22-n34"/>
<trip id="1" depart="0" from="n21-n1" to="n22-n34"/>
<trip id="2" depart="1" from="n25-n9" to="n22-n34"/>
<trip id="3" depart="2" from="n25-n9" to="n22-n34"/>
<trip id="4" depart="3" from="n25-n9" to="n29-n41"/>
<trip id="5" depart="3" from="n25-n9" to="n22-n34"/>
<trip id="6" depart="3" from="n25-n9" to="n22-n34"/>
<trip id="7" depart="4" from="n21-n1" to="n22-n34"/>
<trip id="8" depart="4" from="n21-n1" to="n22-n34"/>
<trip id="9" depart="5" from="n21-n1" to="n22-n34"/>
<trip id="10" depart="5" from="n21-n1" to="n22-n34"/>
<trip id="11" depart="10" from="n21-n1" to="n29-n41"/>
<trip id="12" depart="11" from="n21-n1" to="n22-n34"/>
<trip id="13" depart="11" from="n21-n1" to="n22-n34"/>
<trip id="14" depart="11" from="n21-n1" to="n22-n34"/>
<trip id="15" depart="11" from="n25-n9" to="n22-n34"/>
<trip id="16" depart="12" from="n25-n9" to="n22-n34"/>
<trip id="17" depart="13" from="n21-n1" to="n22-n34"/>
<trip id="18" depart="13" from="n21-n1" to="n29-n41"/>
<trip id="19" depart="14" from="n21-n1" to="n22-n34"/>
<trip id="20" depart="16" from="n25-n9" to="n22-n34"/>
<trip id="21" depart="17" from="n25-n9" to="n22-n34"/>
<trip id="22" depart="17" from="n25-n9" to="n22-n34"/>
<trip id="23" depart="19" from="n25-n9" to="n22-n34"/>
<trip id="24" depart="19" from="n25-n9" to="n22-n34"/>
<trip id="25" depart="21" from="n21-n1" to="n22-n34"/>
<trip id="26" depart="21" from="n21-n1" to="n29-n41"/>
<trip id="27" depart="21" from="n21-n1" to="n22-n34"/>
<trip id="28" depart="21" from="n21-n1" to="n22-n34"/>
<trip id="29" depart="21" from="n25-n9" to="n22-n34"/>
<trip id="30" depart="22" from="n25-n9" to="n22-n34"/>
<trip id="31" depart="26" from="n25-n9" to="n22-n34"/>
<trip id="32" depart="26" from="n21-n1" to="n22-n34"/>
<trip id="33" depart="26" from="n21-n1" to="n22-n34"/>
<trip id="34" depart="27" from="n21-n1" to="n22-n34"/>
<trip id="35" depart="27" from="n25-n9" to="n22-n34"/>
<trip id="36" depart="29" from="n25-n9" to="n22-n34"/>
<trip id="37" depart="29" from="n21-n1" to="n22-n34"/>
<trip id="38" depart="29" from="n21-n1" to="n22-n34"/>
<trip id="39" depart="29" from="n21-n1" to="n22-n34"/>
<trip id="40" depart="31" from="n21-n1" to="n22-n34"/>
<trip id="41" depart="32" from="n21-n1" to="n22-n34"/>
<trip id="42" depart="32" from="n25-n9" to="n22-n34"/>
<trip id="43" depart="32" from="n25-n9" to="n22-n34"/>
<trip id="44" depart="36" from="n21-n1" to="n22-n34"/>
<trip id="45" depart="36" from="n25-n9" to="n22-n34"/>
<trip id="46" depart="36" from="n21-n1" to="n22-n34"/>
<trip id="47" depart="36" from="n25-n9" to="n22-n34"/>
<trip id="48" depart="37" from="n21-n1" to="n22-n34"/>
<trip id="49" depart="38" from="n25-n9" to="n29-n41"/>
<trip id="50" depart="38" from="n21-n1" to="n22-n34"/>
<trip id="51" depart="39" from="n21-n1" to="n22-n34"/>
<trip id="52" depart="39" from="n21-n1" to="n22-n34"/>
<trip id="53" depart="40" from="n25-n9" to="n22-n34"/>
<trip id="54" depart="40" from="n21-n1" to="n22-n34"/>
<trip id="55" depart="41" from="n21-n1" to="n22-n34"/>
<trip id="56" depart="42" from="n25-n9" to="n22-n34"/>
<trip id="57" depart="44" from="n21-n1" to="n29-n41"/>
<trip id="58" depart="45" from="n25-n9" to="n22-n34"/>
<trip id="59" depart="46" from="n21-n1" to="n22-n34"/>
<trip id="60" depart="46" from="n21-n1" to="n22-n34"/>
<trip id="61" depart="46" from="n21-n1" to="n22-n34"/>
<trip id="62" depart="48" from="n25-n9" to="n22-n34"/>
<trip id="63" depart="48" from="n21-n1" to="n22-n34"/>
<trip id="64" depart="49" from="n21-n1" to="n22-n34"/>
<trip id="65" depart="49" from="n25-n9" to="n22-n34"/>
<trip id="66" depart="50" from="n25-n9" to="n22-n34"/>
<trip id="67" depart="54" from="n21-n1" to="n22-n34"/>
<trip id="68" depart="55" from="n21-n1" to="n29-n41"/>
<trip id="69" depart="55" from="n21-n1" to="n22-n34"/>
<trip id="70" depart="56" from="n25-n9" to="n22-n34"/>
<trip id="71" depart="56" from="n21-n1" to="n22-n34"/>
<trip id="72" depart="57" from="n21-n1" to="n29-n41"/>
<trip id="73" depart="58" from="n21-n1" to="n22-n34"/>
<trip id="74" depart="58" from="n25-n9" to="n29-n41"/>
<trip id="75" depart="59" from="n21-n1" to="n22-n34"/>
<trip id="76" depart="60" from="n21-n1" to="n22-n34"/>
<trip id="77" depart="60" from="n21-n1" to="n22-n34"/>
<trip id="78" depart="61" from="n25-n9" to="n22-n34"/>
<trip id="79" depart="62" from="n21-n1" to="n22-n34"/>
<trip id="80" depart="62" from="n21-n1" to="n22-n34"/>
<trip id="81" depart="63" from="n25-n9" to="n22-n34"/>
<trip id="82" depart="63" from="n21-n1" to="n29-n41"/>
<trip id="83" depart="65" from="n21-n1" to="n22-n34"/>
<trip id="84" depart="70" from="n21-n1" to="n22-n34"/>
<trip id="85" depart="70" from="n21-n1" to="n22-n34"/>
<trip id="86" depart="71" from="n25-n9" to="n22-n34"/>
<trip id="87" depart="72" from="n21-n1" to="n22-n34"/>
<trip id="88" depart="73" from="n25-n9" to="n22-n34"/>
<trip id="89" depart="73" from="n21-n1" to="n22-n34"/>
<trip id="90" depart="74" from="n25-n9" to="n22-n34"/>
<trip id="91" depart="74" from="n21-n1" to="n22-n34"/>
<trip id="92" depart="74" from="n21-n1" to="n29-n41"/>
<trip id="93" depart="74" from="n21-n1" to="n22-n34"/>
<trip id="94" depart="74" from="n25-n9" to="n22-n34"/>
<trip id="95" depart="78" from="n25-n9" to="n22-n34"/>
<trip id="96" depart="80" from="n21-n1" to="n22-n34"/>
<trip id="97" depart="80" from="n25-n9" to="n22-n34"/>
<trip id="98" depart="80" from="n21-n1" to="n29-n41"/>
<trip id="99" depart="80" from="n21-n1" to="n22-n34"/>
<trip id="100" depart="81" from="n21-n1" to="n22-n34"/>
<trip id="101" depart="82" from="n25-n9" to="n22-n34"/>
<trip id="102" depart="82" from="n25-n9" to="n22-n34"/>
<trip id="103" depart="82" from="n25-n9" to="n22-n34"/>
<trip id="104" depart="83" from="n21-n1" to="n22-n34"/>
<trip id="105" depart="83" from="n21-n1" to="n22-n34"/>
<trip id="106" depart="83" from="n21-n1" to="n22-n34"/>
<trip id="107" depart="84" from="n21-n1" to="n22-n34"/>
<trip id="108" depart="85" from="n21-n1" to="n22-n34"/>
<trip id="109" depart="86" from="n21-n1" to="n22-n34"/>
<trip id="110" depart="86" from="n21-n1" to="n29-n41"/>
<trip id="111" depart="86" from="n21-n1" to="n22-n34"/>
<trip id="112" depart="87" from="n25-n9" to="n22-n34"/>
<trip id="113" depart="89" from="n25-n9" to="n22-n34"/>
<trip id="114" depart="92" from="n21-n1" to="n22-n34"/>
<trip id="115" depart="93" from="n21-n1" to="n22-n34"/>
<trip id="116" depart="93" from="n21-n1" to="n22-n34"/>
<trip id="117" depart="93" from="n25-n9" to="n22-n34"/>
<trip id="118" depart="95" from="n21-n1" to="n22-n34"/>
<trip id="119" depart="96" from="n21-n1" to="n22-n34"/>
<trip id="120" depart="96" from="n25-n9" to="n22-n34"/>
<trip id="121" depart="97" from="n25-n9" to="n22-n34"/>
<trip id="122" depart="97" from="n25-n9" to="n22-n34"/>
<trip id="123" depart="97" from="n21-n1" to="n22-n34"/>
<trip id="124" depart="98" from="n21-n1" to="n22-n34"/>
<trip id="125" depart="98" from="n25-n9" to="n29-n41"/>
<trip id="126" depart="99" from="n21-n1" to="n22-n34"/>
<trip id="127" depart="100" from="n25-n9" to="n22-n34"/>
<trip id="128" depart="101" from="n21-n1" to="n29-n41"/>
<trip id="129" depart="101" from="n21-n1" to="n22-n34"/>
<trip id="130" depart="101" from="n21-n1" to="n22-n34"/>
<trip id="131" depart="102" from="n21-n1" to="n22-n34"/>
<trip id="132" depart="105" from="n25-n9" to="n22-n34"/>
<trip id="133" depart="105" from="n21-n1" to="n29-n41"/>
<trip id="134" depart="106" from="n21-n1" to="n29-n41"/>
<trip id="135" depart="107" from="n25-n9" to="n22-n34"/>
<trip id="136" depart="107" from="n21-n1" to="n22-n34"/>
<trip id="137" depart="109" from="n21-n1" to="n22-n34"/>
<trip id="138" depart="109" from="n21-n1" to="n22-n34"/>
<trip id="139" depart="110" from="n21-n1" to="n22-n34"/>
<trip id="140" depart="110" from="n21-n1" to="n22-n34"/>
<trip id="141" depart="110" from="n21-n1" to="n22-n34"/>
<trip id="142" depart="110" from="n25-n9" to="n22-n34"/>
<trip id="143" depart="111" from="n21-n1" to="n22-n34"/>
<trip id="144" depart="112" from="n21-n1" to="n22-n34"/>
<trip id="145" depart="112" from="n25-n9" to="n22-n34"/>
<trip id="146" depart="113" from="n21-n1" to="n22-n34"/>
<trip id="147" depart="113" from="n21-n1" to="n22-n34"/>
<trip id="148" depart="115" from="n21-n1" to="n22-n34"/>
<trip id="149" depart="116" from="n21-n1" to="n22-n34"/>
<trip id="150" depart="117" from="n21-n1" to="n22-n34"/>
<trip id="151" depart="117" from="n21-n1" to="n22-n34"/>
<trip id="152" depart="117" from="n21-n1" to="n22-n34"/>
<trip id="153" depart="118" from="n25-n9" to="n22-n34"/>
<trip id="154" depart="118" from="n25-n9" to="n29-n41"/>
<trip id="155" depart="119" from="n21-n1" to="n22-n34"/>
<trip id="156" depart="120" from="n21-n1" to="n22-n34"/>
<trip id="157" depart="122" from="n21-n1" to="n22-n34"/>
<trip id="158" depart="124" from="n21-n1" to="n22-n34"/>
<trip id="159" depart="124" from="n25-n9" to="n22-n34"/>
<trip id="160" depart="128" from="n21-n1" to="n22-n34"/>
<trip id="161" depart="129" from="n21-n1" to="n22-n34"/>
<trip id="162" depart="129" from="n25-n9" to="n22-n34"/>
<trip id="163" depart="130" from="n25-n9" to="n22-n34"/>
<trip id="164" depart="130" from="n21-n1" to="n22-n34"/>
<trip id="165" depart="131" from="n21-n1" to="n22-n34"/>
<trip id="166" depart="132" from="n25-n9" to="n22-n34"/>
<trip id="167" depart="133" from="n21-n1" to="n22-n34"/>
<trip id="168" depart="133" from="n21-n1" to="n22-n34"/>
<trip id="169" depart="135" from="n25-n9" to="n22-n34"/>
<trip id="170" depart="136" from="n25-n9" to="n29-n41"/>
<trip id="171" depart="137" from="n21-n1" to="n29-n41"/>
<trip id="172" depart="138" from="n25-n9" to="n22-n34"/>
<trip id="173" depart="138" from="n25-n9" to="n22-n34"/>
<trip id="174" depart="139" from="n21-n1" to="n22-n34"/>
<trip id="175" depart="139" from="n25-n9" to="n22-n34"/>
<trip id="176" depart="140" from="n25-n9" to="n22-n34"/>
<trip id="177" depart="140" from="n21-n1" to="n22-n34"/>
<trip id="178" depart="141" from="n21-n1" to="n29-n41"/>
<trip id="179" depart="142" from="n25-n9" to="n29-n41"/>
<trip id="180" depart="142" from="n25-n9" to="n22-n34"/>
<trip id="181" depart="143" from="n25-n9" to="n22-n34"/>
<trip id="182" depart="143" from="n21-n1" to="n22-n34"/>
<trip id="183" depart="145" from="n21-n1" to="n29-n41"/>
<trip id="184" depart="146" from="n21-n1" to="n22-n34"/>
<trip id="185" depart="147" from="n25-n9" to="n22-n34"/>
<trip id="186" depart="147" from="n21-n1" to="n22-n34"/>
<trip id="187" depart="149" from="n25-n9" to="n22-n34"/>
<trip id="188" depart="149" from="n21-n1" to="n22-n34"/>
<trip id="189" depart="149" from="n21-n1" to="n22-n34"/>
<trip id="190" depart="149" from="n25-n9" to="n22-n34"/>
<trip id="191" depart="149" from="n25-n9" to="n22-n34"/>
<trip id="192" depart="150" from="n21-n1" to="n22-n34"/>
<trip id="193" depart="150" from="n21-n1" to="n22-n34"/>
<trip id="194" depart="151" from="n21-n1" to="n22-n34"/>
<trip id="195" depart="153" from="n21-n1" to="n22-n34"/>
<trip id="196" depart="154" from="n25-n9" to="n22-n34"/>
<trip id="197" depart="154" from="n21-n1" to="n22-n34"/>
<trip id="198" depart="154" from="n21-n1" to="n22-n34"/>
<trip id="199" depart="155" from="n21-n1" to="n22-n34"/>
<trip id="200" depart="155" from="n25-n9" to="n22-n34"/>
<trip id="201" depart="156" from="n25-n9" to="n29-n41"/>
<trip id="202" depart="156" from="n21-n1" to="n22-n34"/>
<trip id="203" depart="158" from="n25-n9" to="n22-n34"/>
<trip id="204" depart="159" from="n25-n9" to="n22-n34"/>
<trip id="205" depart="160" from="n25-n9" to="n22-n34"/>
<trip id="206" depart="161" from="n21-n1" to="n22-n34"/>
<trip id="207" depart="162" from="n21-n1" to="n22-n34"/>
<trip id="208" depart="162" from="n21-n1" to="n22-n34"/>
<trip id="209" depart="162" from="n25-n9" to="n22-n34"/>
<trip id="210" depart="164" from="n21-n1" to="n22-n34"/>
<trip id="211" depart="164" from="n21-n1" to="n22-n34"/>
<trip id="212" depart="167" from="n21-n1" to="n22-n34"/>
<trip id="213" depart="167" from="n21-n1" to="n29-n41"/>
<trip id="214" depart="167" from="n25-n9" to="n22-n34"/>
<trip id="215" depart="168" from="n25-n9" to="n22-n34"/>
<trip id="216" depart="168" from="n21-n1" to="n22-n34"/>
<trip id="217" depart="168" from="n25-n9" to="n22-n34"/>
<trip id="218" depart="168" from="n21-n1" to="n22-n34"/>
<trip id="219" depart="169" from="n21-n1" to="n22-n34"/>
<trip id="220" depart="169" from="n21-n1" to="n22-n34"/>
<trip id="221" depart="170" from="n21-n1" to="n22-n34"/>
<trip id="222" depart="170" from="n21-n1" to="n29-n41"/>
<trip id="223" depart="171" from="n25-n9" to="n22-n34"/>
<trip id="224" depart="171" from="n21-n1" to="n29-n41"/>
<trip id="225" depart="171" from="n25-n9" to="n22-n34"/>
<trip id="226" depart="174" from="n25-n9" to="n22-n34"/>
<trip id="227" depart="174" from="n25-n9" to="n22-n34"/>
<trip id="228" depart="174" from="n21-n1" to="n29-n41"/>
<trip id="229" depart="177" from="n25-n9" to="n22-n34"/>
<trip id="230" depart="177" from="n21-n1" to="n22-n34"/>
<trip id="231" depart="178" from="n21-n1" to="n22-n34"/>
<trip id="232" depart="181" from="n21-n1" to="n29-n41"/>
<trip id="233" depart="183" from="n25-n9" to="n22-n34"/>
<trip id="234" depart="184" from="n25-n9" to="n22-n34"/>
<trip id="235" depart="185" from="n21-n1" to="n29-n41"/>
<trip id="236" depart="186" from="n21-n1" to="n29-n41"/>
<trip id="237" depart="186" from="n25-n9" to="n22-n34"/>
<trip id="238" depart="187" from="n25-n9" to="n22-n34"/>
<trip id="239" depart="188" from="n21-n1" to="n22-n34"/>
<trip id="240" depart="188" from="n25-n9" to="n22-n34"/>
<trip id="241" depart="189" from="n25-n9" to="n22-n34"/>
<trip id="242" depart="190" from="n21-n1" to="n22-n34"/>
<trip id="243" depart="191" from="n21-n1" to="n22-n34"/>
<trip id="244" depart="191" from="n21-n1" to="n22-n34"/>
<trip id="245" depart="191" from="n21-n1" to="n22-n34"/>
<trip id="246" depart="193" from="n21-n1" to="n22-n34"/>
<trip id="247" depart="194" from="n21-n1" to="n22-n34"/>
<trip id="248" depart="194" from="n21-n1" to="n22-n34"/>
<trip id="249" depart="195" from="n21-n1" to="n22-n34"/>
<trip id="250" depart="195" from="n21-n1" to="n22-n34"/>
<trip id="251" depart="196" from="n21-n1" to="n22-n34"/>
<trip id="252" depart="196" from="n21-n1" to="n22-n34"/>
<trip id="253" depart="196" from="n25-n9" to="n22-n34"/>
<trip id="254" depart="197" from="n25-n9" to="n22-n34"/>
<trip id="255" depart="197" from="n21-n1" to="n22-n34"/>
<trip id="256" depart="197" from="n21-n1" to="n22-n34"/>
<trip id="257" depart="198" from="n21-n1" to="n22-n34"/>
<trip id="258" depart="198" from="n25-n9" to="n22-n34"/>
<trip id="259" depart="198" from="n25-n9" to="n22-n34"/>
<trip id="260" depart="198" from="n21-n1" to="n22-n34"/>
<trip id="261" depart="199" from="n25-n9" to="n22-n34"/>
<trip id="262" depart="201" from="n25-n9" to="n22-n34"/>
<trip id="263" depart="201" from="n25-n9" to="n22-n34"/>
<trip id="264" depart="202" from="n21-n1" to="n22-n34"/>
<trip id="265" depart="206" from="n25-n9" to="n22-n34"/>
<trip id="266" depart="206" from="n21-n1" to="n22-n34"/>
<trip id="267" depart="207" from="n25-n9" to="n22-n34"/>
<trip id="268" depart="207" from="n21-n1" to="n22-n34"/>
<trip id="269" depart="207" from="n25-n9" to="n22-n34"/>
<trip id="270" depart="208" from="n21-n1" to="n22-n34"/>
<trip id="271" depart="208" from="n25-n9" to="n22-n34"/>
<trip id="272" depart="211" from="n25-n9" to="n22-n34"/>
<trip id="273" depart="211" from="n25-n9" to="n22-n34"/>
<trip id="274" depart="211" from="n21-n1" to="n22-n34"/>
<trip id="275" depart="211" from="n25-n9" to="n22-n34"/>
<trip id="276" depart="213" from="n21-n1" to="n22-n34"/>
<trip id="277" depart="213" from="n21-n1" to="n22-n34"/>
<trip id="278" depart="213" from="n21-n1" to="n22-n34"/>
<trip id="279" depart="214" from="n25-n9" to="n29-n41"/>
<trip id="280" depart="214" from="n21-n1" to="n22-n34"/>
<trip id="281" depart="215" from="n25-n9" to="n22-n34"/>
<trip id="282" depart="215" from="n21-n1" to="n22-n34"/>
<trip id="283" depart="217" from="n21-n1" to="n22-n34"/>
<trip id="284" depart="218" from="n25-n9" to="n22-n34"/>
<trip id="285" depart="218" from="n21-n1" to="n22-n34"/>
<trip id="286" depart="218" from="n21-n1" to="n22-n34"/>
<trip id="287" depart="218" from="n21-n1" to="n22-n34"/>
<trip id="288" depart="219" from="n21-n1" to="n22-n34"/>
<trip id="289" depart="219" from="n21-n1" to="n22-n34"/>
<trip id="290" depart="220" from="n21-n1" to="n22-n34"/>
<trip id="291" depart="221" from="n21-n1" to="n22-n34"/>
<trip id="292" depart="222" from="n21-n1" to="n22-n34"/>
<trip id="293" depart="222" from="n21-n1" to="n22-n34"/>
<trip id="294" depart="223" from="n25-n9" to="n22-n34"/>
<trip id="295" depart="224" from="n21-n1" to="n22-n34"/>
<trip id="296" depart="224" from="n21-n1" to="n22-n34"/>
<trip id="297" depart="224" from="n21-n1" to="n22-n34"/>
<trip id="298" depart="225" from="n21-n1" to="n22-n34"/>
<trip id="299" depart="226" from="n21-n1" to="n22-n34"/>
<trip id="300" depart="226" from="n25-n9" to="n29-n41"/>
<trip id="301" depart="227" from="n21-n1" to="n22-n34"/>
<trip id="302" depart="230" from="n25-n9" to="n22-n34"/>
<trip id="303" depart="231" from="n21-n1" to="n22-n34"/>
<trip id="304" depart="231" from="n21-n1" to="n22-n34"/>
<trip id="305" depart="232" from="n21-n1" to="n22-n34"/>
<trip id="306" depart="234" from="n25-n9" to="n22-n34"/>
<trip id="307" depart="234" from="n21-n1" to="n22-n34"/>
<trip id="308" depart="235" from="n25-n9" to="n22-n34"/>
<trip id="309" depart="236" from="n21-n1" to="n22-n34"/>
<trip id="310" depart="238" from="n21-n1" to="n22-n34"/>
<trip id="311" depart="238" from="n25-n9" to="n22-n34"/>
<trip id="312" depart="239" from="n21-n1" to="n22-n34"/>
<trip id="313" depart="240" from="n21-n1" to="n29-n41"/>
<trip id="314" depart="241" from="n21-n1" to="n22-n34"/>
<trip id="315" depart="243" from="n25-n9" to="n22-n34"/>
<trip id="316" depart="243" from="n21-n1" to="n22-n34"/>
<trip id="317" depart="243" from="n21-n1" to="n29-n41"/>
<trip id="318" depart="244" from="n25-n9" to="n22-n34"/>
<trip id="319" depart="244" from="n25-n9" to="n22-n34"/>
<trip id="320" depart="246" from="n21-n1" to="n22-n34"/>
<trip id="321" depart="247" from="n25-n9" to="n22-n34"/>
<trip id="322" depart="248" from="n21-n1" to="n22-n34"/>
<trip id="323" depart="249" from="n25-n9" to="n29-n41"/>
<trip id="324" depart="249" from="n21-n1" to="n22-n34"/>
<trip id="325" depart="250" from="n21-n1" to="n22-n34"/>
<trip id="326" depart="250" from="n25-n9" to="n22-n34"/>
<trip id="327" depart="250" from="n21-n1" to="n22-n34"/>
<trip id="328" depart="253" from="n25-n9" to="n22-n34"/>
<trip id="329" depart="254" from="n21-n1" to="n22-n34"/>
<trip id="330" depart="255" from="n21-n1" to="n22-n34"/>
<trip id="331" depart="256" from="n25-n9" to="n22-n34"/>
<trip id="332" depart="256" from="n25-n9" to="n22-n34"/>
<trip id="333" depart="258" from="n21-n1" to="n29-n41"/>
<trip id="334" depart="262" from="n25-n9" to="n29-n41"/>
<trip id="335" depart="262" from="n21-n1" to="n22-n34"/>
<trip id="336" depart="262" from="n21-n1" to="n22-n34"/>
<trip id="337" depart="263" from="n21-n1" to="n22-n34"/>
<trip id="338" depart="265" from="n21-n1" to="n22-n34"/>
<trip id="339" depart="267" from="n21-n1" to="n29-n41"/>
<trip id="340" depart="269" from="n25-n9" to="n22-n34"/>
<trip id="341" depart="269" from="n25-n9" to="n22-n34"/>
<trip id="342" depart="269" from="n25-n9" to="n22-n34"/>
<trip id="343" depart="269" from="n25-n9" to="n22-n34"/>
<trip id="344" depart="270" from="n25-n9" to="n22-n34"/>
<trip id="345" depart="270" from="n21-n1" to="n22-n34"/>
<trip id="346" depart="271" from="n21-n1" to="n22-n34"/>
<trip id="347" depart="271" from="n21-n1" to="n22-n34"/>
<trip id="348" depart="271" from="n25-n9" to="n22-n34"/>
<trip id="349" depart="271" from="n25-n9" to="n22-n34"/>
<trip id="350" depart="272" from="n25-n9" to="n22-n34"/>
<trip id="351" depart="272" from="n25-n9" to="n22-n34"/>
<trip id="352" depart="272" from="n21-n1" to="n22-n34"/>
<trip id="353" depart="273" from="n25-n9" to="n22-n34"/>
<trip id="354" depart="273" from="n25-n9" to="n22-n34"/>
<trip id="355" depart="274" from="n25-n9" to="n22-n34"/>
<trip id="356" depart="274" from="n25-n9" to="n22-n34"/>
<trip id="357" depart="274" from="n25-n9" to="n22-n34"/>
<trip id="358" depart="275" from="n21-n1" to="n22-n34"/>
<trip id="359" depart="275" from="n25-n9" to="n22-n34"/>
<trip id="360" depart="277" from="n21-n1" to="n22-n34"/>
<trip id="361" depart="277" from="n21-n1" to="n22-n34"/>
<trip id="362" depart="278" from="n21-n1" to="n22-n34"/>
<trip id="363" depart="278" from="n21-n1" to="n22-n34"/>
<trip id="364" depart="279" from="n21-n1" to="n22-n34"/>
<trip id="365" depart="279" from="n25-n9" to="n22-n34"/>
<trip id="366" depart="280" from="n21-n1" to="n22-n34"/>
<trip id="367" depart="281" from="n21-n1" to="n22-n34"/>
<trip id="368" depart="282" from="n25-n9" to="n22-n34"/>
<trip id="369" depart="283" from="n25-n9" to="n22-n34"/>
<trip id="370" depart="283" from="n25-n9" to="n22-n34"/>
<trip id="371" depart="284" from="n21-n1" to="n22-n34"/>
<trip id="372" depart="286" from="n21-n1" to="n22-n34"/>
<trip id="373" depart="287" from="n25-n9" to="n22-n34"/>
<trip id="374" depart="288" from="n25-n9" to="n22-n34"/>
<trip id="375" depart="289" from="n21-n1" to="n22-n34"/>
<trip id="376" depart="290" from="n25-n9" to="n22-n34"/>
<trip id="377" depart="290" from="n21-n1" to="n29-n41"/>
<trip id="378" depart="290" from="n25-n9" to="n22-n34"/>
<trip id="379" depart="290" from="n25-n9" to="n22-n34"/>
<trip id="380" depart="291" from="n21-n1" to="n22-n34"/>
<trip id="381" depart="291" from="n21-n1" to="n22-n34"/>
<trip id="382" depart="292" from="n21-n1" to="n22-n34"/>
<trip id="383" depart="293" from="n25-n9" to="n22-n34"/>
<trip id="384" depart="293" from="n21-n1" to="n29-n41"/>
<trip id="385" depart="294" from="n21-n1" to="n22-n34"/>
<trip id="386" depart="295" from="n21-n1" to="n22-n34"/>
<trip id="387" depart="296" from="n25-n9" to="n22-n34"/>
<trip id="388" depart="297" from="n21-n1" to="n22-n34"/>
<trip id="389" depart="298" from="n21-n1" to="n22-n34"/>
<trip id="390" depart="298" from="n21-n1" to="n22-n34"/>
<trip id="391" depart="298" from="n25-n9" to="n22-n34"/>
<trip id="392" depart="299" from="n21-n1" to="n22-n34"/>
<trip id="393" depart="301" from="n21-n1" to="n29-n41"/>
<trip id="394" depart="301" from="n25-n9" to="n22-n34"/>
<trip id="395" depart="301" from="n25-n9" to="n22-n34"/>
<trip id="396" depart="302" from="n25-n9" to="n29-n41"/>
<trip id="397" depart="302" from="n25-n9" to="n22-n34"/>
<trip id="398" depart="304" from="n21-n1" to="n22-n34"/>
<trip id="399" depart="305" from="n25-n9" to="n29-n41"/>
<trip id="400" depart="306" from="n25-n9" to="n22-n34"/>
<trip id="401" depart="306" from="n25-n9" to="n22-n34"/>
<trip id="402" depart="307" from="n21-n1" to="n22-n34"/>
<trip id="403" depart="309" from="n21-n1" to="n22-n34"/>
<trip id="404" depart="311" from="n21-n1" to="n22-n34"/>
<trip id="405" depart="312" from="n25-n9" to="n22-n34"/>
<trip id="406" depart="313" from="n25-n9" to="n22-n34"/>
<trip id="407" depart="315" from="n21-n1" to="n22-n34"/>
<trip id="408" depart="315" from="n21-n1" to="n22-n34"/>
<trip id="409" depart="316" from="n21-n1" to="n22-n34"/>
<trip id="410" depart="317" from="n21-n1" to="n22-n34"/>
<trip id="411" depart="318" from="n25-n9" to="n22-n34"/>
<trip id="412" depart="319" from="n21-n1" to="n22-n34"/>
<trip id="413" depart="321" from="n21-n1" to="n22-n34"/>
<trip id="414" depart="321" from="n21-n1" to="n22-n34"/>
<trip id="415" depart="322" from="n21-n1" to="n22-n34"/>
<trip id="416" depart="322" from="n21-n1" to="n22-n34"/>
<trip id="417" depart="322" from="n21-n1" to="n22-n34"/>
<trip id="418" depart="323" from="n21-n1" to="n22-n34"/>
<trip id="419" depart="323" from="n21-n1" to="n22-n34"/>
<trip id="420" depart="323" from="n21-n1" to="n22-n34"/>
<trip id="421" depart="325" from="n21-n1" to="n29-n41"/>
<trip id="422" depart="325" from="n25-n9" to="n22-n34"/>
<trip id="423" depart="326" from="n25-n9" to="n22-n34"/>
<trip id="424" depart="326" from="n25-n9" to="n22-n34"/>
<trip id="425" depart="328" from="n25-n9" to="n22-n34"/>
<trip id="426" depart="329" from="n21-n1" to="n22-n34"/>
<trip id="427" depart="330" from="n25-n9" to="n22-n34"/>
<trip id="428" depart="330" from="n25-n9" to="n22-n34"/>
<trip id="429" depart="331" from="n25-n9" to="n29-n41"/>
<trip id="430" depart="332" from="n21-n1" to="n22-n34"/>
<trip id="431" depart="332" from="n25-n9" to="n22-n34"/>
<trip id="432" depart="332" from="n21-n1" to="n22-n34"/>
<trip id="433" depart="332" from="n25-n9" to="n22-n34"/>
<trip id="434" depart="334" from="n21-n1" to="n22-n34"/>
<trip id="435" depart="337" from="n25-n9" to="n22-n34"/>
<trip id="436" depart="338" from="n21-n1" to="n29-n41"/>
<trip id="437" depart="339" from="n21-n1" to="n22-n34"/>
<trip id="438" depart="339" from="n21-n1" to="n29-n41"/>
<trip id="439" depart="342" from="n25-n9" to="n22-n34"/>
<trip id="440" depart="343" from="n21-n1" to="n22-n34"/>
<trip id="441" depart="343" from="n25-n9" to="n22-n34"/>
<trip id="442" depart="344" from="n21-n1" to="n22-n34"/>
<trip id="443" depart="346" from="n25-n9" to="n22-n34"/>
<trip id="444" depart="346" from="n21-n1" to="n29-n41"/>
<trip id="445" depart="347" from="n21-n1" to="n22-n34"/>
<trip id="446" depart="348" from="n21-n1" to="n22-n34"/>
<trip id="447" depart="348" from="n21-n1" to="n22-n34"/>
<trip id="448" depart="351" from="n21-n1" to="n22-n34"/>
<trip id="449" depart="352" from="n21-n1" to="n22-n34"/>
<trip id="450" depart="352" from="n21-n1" to="n22-n34"/>
<trip id="451" depart="352" from="n21-n1" to="n22-n34"/>
<trip id="452" depart="352" from="n21-n1" to="n22-n34"/>
<trip id="453" depart="356" from="n25-n9" to="n22-n34"/>
<trip id="454" depart="356" from="n21-n1" to="n22-n34"/>
<trip id="455" depart="358" from="n21-n1" to="n22-n34"/>
<trip id="456" depart="358" from="n21-n1" to="n22-n34"/>
<trip id="457" depart="359" from="n21-n1" to="n22-n34"/>
<trip id="458" depart="359" from="n21-n1" to="n22-n34"/>
<trip id="459" depart="359" from="n21-n1" to="n22-n34"/>
<trip id="460" depart="360" from="n21-n1" to="n22-n34"/>
<trip id="461" depart="360" from="n25-n9" to="n22-n34"/>
<trip id="462" depart="360" from="n21-n1" to="n22-n34"/>
<trip id="463" depart="360" from="n25-n9" to="n22-n34"/>
<trip id="464" depart="360" from="n21-n1" to="n22-n34"/>
<trip id="465" depart="360" from="n25-n9" to="n22-n34"/>
<trip id="466" depart="362" from="n25-n9" to="n22-n34"/>
<trip id="467" depart="362" from="n25-n9" to="n22-n34"/>
<trip id="468" depart="362" from="n21-n1" to="n22-n34"/>
<trip id="469" depart="363" from="n21-n1" to="n22-n34"/>
<trip id="470" depart="364" from="n25-n9" to="n22-n34"/>
<trip id="471" depart="364" from="n21-n1" to="n22-n34"/>
<trip id="472" depart="365" from="n21-n1" to="n22-n34"/>
<trip id="473" depart="366" from="n21-n1" to="n22-n34"/>
<trip id="474" depart="367" from="n21-n1" to="n29-n41"/>
<trip id="475" depart="368" from="n25-n9" to="n29-n41"/>
<trip id="476" depart="368" from="n21-n1" to="n22-n34"/>
<trip id="477" depart="369" from="n25-n9" to="n22-n34"/>
<trip id="478" depart="370" from="n25-n9" to="n22-n34"/>
<trip id="479" depart="370" from="n21-n1" to="n22-n34"/>
<trip id="480" depart="371" from="n25-n9" to="n22-n34"/>
<trip id="481" depart="372" from="n21-n1" to="n22-n34"/>
<trip id="482" depart="372" from="n25-n9" to="n22-n34"/>
<trip id="483" depart="372" from="n21-n1" to="n22-n34"/>
<trip id="484" depart="374" from="n21-n1" to="n22-n34"/>
<trip id="485" depart="374" from="n21-n1" to="n22-n34"/>
<trip id="486" depart="375" from="n21-n1" to="n22-n34"/>
<trip id="487" depart="376" from="n21-n1" to="n22-n34"/>
<trip id="488" depart="376" from="n21-n1" to="n22-n34"/>
<trip id="489" depart="377" from="n21-n1" to="n22-n34"/>
<trip id="490" depart="380" from="n25-n9" to="n22-n34"/>
<trip id="491" depart="381" from="n21-n1" to="n22-n34"/>
<trip id="492" depart="382" from="n21-n1" to="n22-n34"/>
<trip id="493" depart="382" from="n25-n9" to="n22-n34"/>
<trip id="494" depart="383" from="n25-n9" to="n22-n34"/>
<trip id="495" depart="385" from="n21-n1" to="n22-n34"/>
<trip id="496" depart="385" from="n21-n1" to="n22-n34"/>
<trip id="497" depart="386" from="n21-n1" to="n22-n34"/>
<trip id="498" depart="387" from="n25-n9" to="n22-n34"/>
<trip id="499" depart="387" from="n25-n9" to="n22-n34"/>
<trip id="500" depart="387" from="n25-n9" to="n22-n34"/>
<trip id="501" depart="388" from="n25-n9" to="n22-n34"/>
<trip id="502" depart="389" from="n21-n1" to="n22-n34"/>
<trip id="503" depart="389" from="n25-n9" to="n22-n34"/>
<trip id="504" depart="389" from="n25-n9" to="n22-n34"/>
<trip id="505" depart="389" from="n21-n1" to="n22-n34"/>
<trip id="506" depart="390" from="n25-n9" to="n22-n34"/>
<trip id="507" depart="390" from="n21-n1" to="n22-n34"/>
<trip id="508" depart="391" from="n25-n9" to="n22-n34"/>
<trip id="509" depart="392" from="n25-n9" to="n22-n34"/>
<trip id="510" depart="395" from="n25-n9" to="n22-n34"/>
<trip id="511" depart="395" from="n21-n1" to="n22-n34"/>
<trip id="512" depart="396" from="n25-n9" to="n22-n34"/>
<trip id="513" depart="396" from="n21-n1" to="n22-n34"/>
<trip id="514" depart="397" from="n25-n9" to="n29-n41"/>
<trip id="515" depart="400" from="n21-n1" to="n22-n34"/>
<trip id="516" depart="401" from="n21-n1" to="n22-n34"/>
<trip id="517" depart="402" from="n25-n9" to="n22-n34"/>
<trip id="518" depart="402" from="n25-n9" to="n22-n34"/>
<trip id="519" depart="403" from="n21-n1" to="n22-n34"/>
<trip id="520" depart="404" from="n25-n9" to="n22-n34"/>
<trip id="521" depart="405" from="n21-n1" to="n22-n34"/>
<trip id="522" depart="406" from="n21-n1" to="n22-n34"/>
<trip id="523" depart="407" from="n21-n1" to="n22-n34"/>
<trip id="524" depart="408" from="n21-n1" to="n22-n34"/>
<trip id="525" depart="410" from="n25-n9" to="n22-n34"/>
<trip id="526" depart="411" from="n25-n9" to="n22-n34"/>