<routes>
    <vType accel="1.0" decel="5.0" id="Car" jmIgnoreKeepClearTime="100.0" maxSpeed="30" length="3" />
        
    <!--emergencyDecel="0.0"-->
    <trip id="0" depart="0" from="n27-n13" to="n31-n43"/>
<trip id="1" depart="0" from="n27-n13" to="n22-n35"/>
<trip id="2" depart="1" from="n27-n13" to="n28-n38"/>
<trip id="3" depart="1" from="n19-n3" to="n3-n19"/>
<trip id="4" depart="2" from="n19-n3" to="n13-n27"/>
<trip id="5" depart="4" from="n27-n13" to="n31-n43"/>
<trip id="6" depart="5" from="n19-n3" to="n28-n38"/>
<trip id="7" depart="8" from="n43-n31" to="n22-n34"/>
<trip id="8" depart="8" from="n43-n31" to="n3-n19"/>
<trip id="9" depart="9" from="n43-n31" to="n13-n27"/>
<trip id="10" depart="10" from="n25-n9" to="n1-n17"/>
<trip id="11" depart="10" from="n27-n13" to="n31-n43"/>
<trip id="12" depart="11" from="n34-n22" to="n13-n27"/>
<trip id="13" depart="11" from="n19-n3" to="n28-n38"/>
<trip id="14" depart="13" from="n19-n3" to="n28-n38"/>
<trip id="15" depart="14" from="n44-n32" to="n13-n27"/>
<trip id="16" depart="15" from="n38-n28" to="n3-n19"/>
<trip id="17" depart="17" from="n27-n13" to="n31-n43"/>
<trip id="18" depart="19" from="n27-n13" to="n13-n27"/>
<trip id="19" depart="19" from="n19-n3" to="n24-n36"/>
<trip id="20" depart="20" from="n27-n13" to="n28-n38"/>
<trip id="21" depart="20" from="n27-n13" to="n13-n27"/>
<trip id="22" depart="21" from="n19-n3" to="n3-n19"/>
<trip id="23" depart="23" from="n38-n28" to="n33-n39"/>
<trip id="24" depart="23" from="n38-n28" to="n31-n43"/>
<trip id="25" depart="24" from="n27-n13" to="n28-n38"/>
<trip id="26" depart="26" from="n38-n28" to="n9-n25"/>
<trip id="27" depart="26" from="n38-n28" to="n33-n45"/>
<trip id="28" depart="26" from="n40-n29" to="n9-n25"/>
<trip id="29" depart="27" from="n43-n31" to="n3-n19"/>
<trip id="30" depart="27" from="n35-n22" to="n22-n34"/>
<trip id="31" depart="30" from="n27-n13" to="n9-n25"/>
<trip id="32" depart="31" from="n19-n3" to="n13-n27"/>
<trip id="33" depart="32" from="n43-n31" to="n31-n43"/>
<trip id="34" depart="33" from="n19-n3" to="n22-n35"/>
<trip id="35" depart="33" from="n38-n28" to="n28-n38"/>
<trip id="36" depart="34" from="n27-n13" to="n31-n43"/>
<trip id="37" depart="34" from="n19-n3" to="n33-n39"/>
<trip id="38" depart="34" from="n27-n13" to="n22-n35"/>
<trip id="39" depart="35" from="n38-n28" to="n2-n18"/>
<trip id="40" depart="36" from="n21-n1" to="n31-n43"/>
<trip id="41" depart="38" from="n27-n13" to="n31-n43"/>
<trip id="42" depart="38" from="n38-n28" to="n31-n43"/>
<trip id="43" depart="38" from="n38-n28" to="n3-n19"/>
<trip id="44" depart="39" from="n39-n33" to="n31-n43"/>
<trip id="45" depart="39" from="n19-n3" to="n31-n43"/>
<trip id="46" depart="39" from="n27-n13" to="n3-n19"/>
<trip id="47" depart="40" from="n37-n26" to="n31-n43"/>
<trip id="48" depart="40" from="n19-n3" to="n33-n45"/>
<trip id="49" depart="42" from="n27-n13" to="n29-n40"/>
<trip id="50" depart="42" from="n44-n32" to="n31-n43"/>
<trip id="51" depart="43" from="n43-n31" to="n28-n38"/>
<trip id="52" depart="43" from="n19-n3" to="n33-n39"/>
<trip id="53" depart="44" from="n38-n28" to="n3-n19"/>
<trip id="54" depart="46" from="n43-n31" to="n28-n38"/>
<trip id="55" depart="48" from="n19-n3" to="n24-n36"/>
<trip id="56" depart="48" from="n19-n3" to="n31-n43"/>
<trip id="57" depart="48" from="n34-n22" to="n31-n43"/>
<trip id="58" depart="51" from="n27-n13" to="n22-n35"/>
<trip id="59" depart="52" from="n43-n31" to="n5-n23"/>
<trip id="60" depart="53" from="n27-n13" to="n9-n25"/>
<trip id="61" depart="53" from="n36-n24" to="n24-n36"/>
<trip id="62" depart="54" from="n43-n31" to="n3-n19"/>
<trip id="63" depart="55" from="n38-n28" to="n4-n20"/>
<trip id="64" depart="57" from="n37-n26" to="n31-n43"/>
<trip id="65" depart="58" from="n34-n22" to="n3-n19"/>
<trip id="66" depart="59" from="n27-n13" to="n3-n19"/>
<trip id="67" depart="59" from="n21-n1" to="n28-n38"/>
<trip id="68" depart="60" from="n43-n31" to="n13-n27"/>
<trip id="69" depart="60" from="n43-n31" to="n3-n19"/>
<trip id="70" depart="62" from="n38-n28" to="n3-n19"/>
<trip id="71" depart="62" from="n34-n22" to="n32-n44"/>
<trip id="72" depart="63" from="n43-n31" to="n31-n43"/>
<trip id="73" depart="64" from="n35-n22" to="n3-n19"/>
<trip id="74" depart="64" from="n25-n9" to="n13-n27"/>
<trip id="75" depart="68" from="n37-n26" to="n22-n35"/>
<trip id="76" depart="69" from="n42-n30" to="n3-n19"/>
<trip id="77" depart="70" from="n38-n28" to="n28-n38"/>
<trip id="78" depart="71" from="n43-n31" to="n31-n43"/>
<trip id="79" depart="71" from="n27-n13" to="n13-n27"/>
<trip id="80" depart="72" from="n43-n31" to="n28-n38"/>
<trip id="81" depart="72" from="n19-n3" to="n31-n43"/>
<trip id="82" depart="73" from="n43-n31" to="n5-n23"/>
<trip id="83" depart="73" from="n37-n26" to="n33-n39"/>
<trip id="84" depart="73" from="n43-n31" to="n22-n35"/>
<trip id="85" depart="75" from="n42-n30" to="n31-n43"/>
<trip id="86" depart="75" from="n43-n31" to="n13-n27"/>
<trip id="87" depart="75" from="n38-n28" to="n3-n19"/>
<trip id="88" depart="75" from="n19-n3" to="n31-n43"/>
<trip id="89" depart="75" from="n43-n31" to="n5-n23"/>
<trip id="90" depart="75" from="n19-n3" to="n29-n40"/>
<trip id="91" depart="77" from="n20-n4" to="n13-n27"/>
<trip id="92" depart="78" from="n18-n2" to="n5-n23"/>
<trip id="93" depart="79" from="n27-n13" to="n3-n19"/>
<trip id="94" depart="81" from="n19-n3" to="n28-n38"/>
<trip id="95" depart="81" from="n27-n13" to="n13-n27"/>
<trip id="96" depart="82" from="n40-n29" to="n29-n41"/>
<trip id="97" depart="83" from="n43-n31" to="n13-n27"/>
<trip id="98" depart="85" from="n38-n28" to="n3-n19"/>
<trip id="99" depart="85" from="n27-n13" to="n28-n38"/>
<trip id="100" depart="85" from="n39-n33" to="n28-n38"/>
<trip id="101" depart="86" from="n43-n31" to="n3-n19"/>
<trip id="102" depart="86" from="n19-n3" to="n31-n43"/>
<trip id="103" depart="88" from="n19-n3" to="n22-n34"/>
<trip id="104" depart="88" from="n37-n26" to="n28-n38"/>
<trip id="105" depart="90" from="n40-n29" to="n13-n27"/>
<trip id="106" depart="90" from="n19-n3" to="n29-n41"/>
<trip id="107" depart="91" from="n19-n3" to="n28-n38"/>
<trip id="108" depart="92" from="n40-n29" to="n13-n27"/>
<trip id="109" depart="93" from="n19-n3" to="n13-n27"/>
<trip id="110" depart="94" from="n43-n31" to="n4-n20"/>
<trip id="111" depart="95" from="n38-n28" to="n1-n17"/>
<trip id="112" depart="95" from="n38-n28" to="n3-n19"/>
<trip id="113" depart="96" from="n40-n29" to="n31-n43"/>
<trip id="114" depart="97" from="n38-n28" to="n28-n38"/>
<trip id="115" depart="97" from="n43-n31" to="n1-n17"/>
<trip id="116" depart="97" from="n43-n31" to="n28-n38"/>
<trip id="117" depart="98" from="n43-n31" to="n13-n27"/>
<trip id="118" depart="99" from="n38-n28" to="n13-n27"/>
<trip id="119" depart="102" from="n17-n1" to="n31-n43"/>
<trip id="120" depart="104" from="n36-n24" to="n28-n38"/>
<trip id="121" depart="106" from="n27-n13" to="n2-n18"/>
<trip id="122" depart="107" from="n43-n31" to="n3-n19"/>
<trip id="123" depart="109" from="n20-n4" to="n28-n38"/>
<trip id="124" depart="110" from="n38-n28" to="n3-n19"/>
<trip id="125" depart="110" from="n20-n4" to="n31-n43"/>
<trip id="126" depart="110" from="n41-n29" to="n29-n41"/>
<trip id="127" depart="111" from="n45-n33" to="n1-n17"/>
<trip id="128" depart="112" from="n43-n31" to="n26-n37"/>
<trip id="129" depart="112" from="n41-n29" to="n1-n21"/>
<trip id="130" depart="115" from="n19-n3" to="n31-n43"/>
<trip id="131" depart="115" from="n38-n28" to="n29-n41"/>
<trip id="132" depart="115" from="n25-n9" to="n28-n38"/>
<trip id="133" depart="117" from="n38-n28" to="n31-n43"/>
<trip id="134" depart="118" from="n25-n9" to="n9-n25"/>
<trip id="135" depart="121" from="n38-n28" to="n24-n36"/>
<trip id="136" depart="122" from="n19-n3" to="n31-n43"/>
<trip id="137" depart="123" from="n19-n3" to="n29-n40"/>
<trip id="138" depart="125" from="n19-n3" to="n4-n20"/>
<trip id="139" depart="126" from="n43-n31" to="n28-n38"/>
<trip id="140" depart="127" from="n17-n1" to="n3-n19"/>
<trip id="141" depart="128" from="n43-n31" to="n31-n43"/>
<trip id="142" depart="128" from="n36-n24" to="n1-n17"/>
<trip id="143" depart="130" from="n38-n28" to="n1-n17"/>
<trip id="144" depart="131" from="n38-n28" to="n31-n43"/>
<trip id="145" depart="132" from="n39-n33" to="n31-n43"/>
<trip id="146" depart="133" from="n38-n28" to="n13-n27"/>
<trip id="147" depart="136" from="n42-n30" to="n3-n19"/>
<trip id="148" depart="137" from="n19-n3" to="n28-n38"/>
<trip id="149" depart="137" from="n27-n13" to="n1-n17"/>
<trip id="150" depart="139" from="n19-n3" to="n3-n19"/>
<trip id="151" depart="140" from="n27-n13" to="n31-n43"/>
<trip id="152" depart="140" from="n25-n9" to="n28-n38"/>
<trip id="153" depart="141" from="n43-n31" to="n28-n38"/>
<trip id="154" depart="141" from="n19-n3" to="n28-n38"/>
<trip id="155" depart="142" from="n43-n31" to="n31-n43"/>
<trip id="156" depart="142" from="n19-n3" to="n3-n19"/>
<trip id="157" depart="142" from="n23-n5" to="n33-n45"/>
<trip id="158" depart="145" from="n43-n31" to="n3-n19"/>
<trip id="159" depart="145" from="n43-n31" to="n28-n38"/>
<trip id="160" depart="145" from="n34-n22" to="n30-n42"/>
<trip id="161" depart="146" from="n43-n31" to="n22-n34"/>
<trip id="162" depart="146" from="n38-n28" to="n13-n27"/>
<trip id="163" depart="147" from="n19-n3" to="n22-n34"/>
<trip id="164" depart="147" from="n43-n31" to="n31-n43"/>
<trip id="165" depart="148" from="n43-n31" to="n4-n20"/>
<trip id="166" depart="149" from="n19-n3" to="n32-n44"/>
<trip id="167" depart="150" from="n38-n28" to="n3-n19"/>
<trip id="168" depart="150" from="n34-n22" to="n31-n43"/>
<trip id="169" depart="152" from="n27-n13" to="n33-n45"/>
<trip id="170" depart="153" from="n27-n13" to="n31-n43"/>
<trip id="171" depart="154" from="n40-n29" to="n31-n43"/>
<trip id="172" depart="156" from="n38-n28" to="n3-n19"/>
<trip id="173" depart="157" from="n23-n5" to="n24-n36"/>
<trip id="174" depart="157" from="n19-n3" to="n3-n19"/>
<trip id="175" depart="158" from="n43-n31" to="n31-n43"/>
<trip id="176" depart="158" from="n27-n13" to="n29-n41"/>
<trip id="177" depart="160" from="n40-n29" to="n4-n20"/>
<trip id="178" depart="162" from="n23-n5" to="n1-n17"/>
<trip id="179" depart="166" from="n34-n22" to="n30-n42"/>
<trip id="180" depart="166" from="n43-n31" to="n3-n19"/>
<trip id="181" depart="168" from="n27-n13" to="n24-n36"/>
<trip id="182" depart="169" from="n43-n31" to="n3-n19"/>
<trip id="183" depart="170" from="n44-n32" to="n33-n45"/>
<trip id="184" depart="170" from="n27-n13" to="n13-n27"/>
<trip id="185" depart="170" from="n38-n28" to="n13-n27"/>
<trip id="186" depart="172" from="n17-n1" to="n28-n38"/>
<trip id="187" depart="173" from="n27-n13" to="n31-n43"/>
<trip id="188" depart="174" from="n43-n31" to="n3-n19"/>
<trip id="189" depart="176" from="n38-n28" to="n28-n38"/>
<trip id="190" depart="177" from="n19-n3" to="n3-n19"/>
<trip id="191" depart="177" from="n19-n3" to="n3-n19"/>
<trip id="192" depart="179" from="n38-n28" to="n3-n19"/>
<trip id="193" depart="180" from="n43-n31" to="n31-n43"/>
<trip id="194" depart="180" from="n43-n31" to="n31-n43"/>
<trip id="195" depart="181" from="n27-n13" to="n31-n43"/>
<trip id="196" depart="181" from="n38-n28" to="n3-n19"/>
<trip id="197" depart="181" from="n27-n13" to="n28-n38"/>
<trip id="198" depart="182" from="n44-n32" to="n3-n19"/>
<trip id="199" depart="182" from="n21-n1" to="n3-n19"/>
<trip id="200" depart="185" from="n19-n3" to="n31-n43"/>
<trip id="201" depart="185" from="n19-n3" to="n28-n38"/>
<trip id="202" depart="187" from="n27-n13" to="n31-n43"/>
<trip id="203" depart="187" from="n19-n3" to="n13-n27"/>
<trip id="204" depart="187" from="n38-n28" to="n22-n34"/>
<trip id="205" depart="188" from="n43-n31" to="n3-n19"/>
<trip id="206" depart="188" from="n38-n28" to="n3-n19"/>
<trip id="207" depart="189" from="n40-n29" to="n31-n43"/>
<trip id="208" depart="189" from="n19-n3" to="n5-n23"/>
<trip id="209" depart="190" from="n42-n30" to="n28-n38"/>
<trip id="210" depart="190" from="n19-n3" to="n29-n40"/>
<trip id="211" depart="191" from="n27-n13" to="n31-n43"/>
<trip id="212" depart="193" from="n41-n29" to="n24-n36"/>
<trip id="213" depart="193" from="n19-n3" to="n31-n43"/>
<trip id="214" depart="193" from="n44-n32" to="n13-n27"/>
<trip id="215" depart="195" from="n19-n3" to="n32-n44"/>
<trip id="216" depart="195" from="n43-n31" to="n13-n27"/>
<trip id="217" depart="197" from="n43-n31" to="n4-n20"/>
<trip id="218" depart="197" from="n43-n31" to="n31-n43"/>
<trip id="219" depart="198" from="n19-n3" to="n3-n19"/>
<trip id="220" depart="199" from="n38-n28" to="n9-n25"/>
<trip id="221" depart="200" from="n43-n31" to="n3-n19"/>
<trip id="222" depart="203" from="n27-n13" to="n32-n44"/>
<trip id="223" depart="203" from="n19-n3" to="n28-n38"/>
<trip id="224" depart="204" from="n27-n13" to="n31-n43"/>
<trip id="225" depart="204" from="n23-n5" to="n33-n39"/>
<trip id="226" depart="207" from="n38-n28" to="n29-n41"/>
<trip id="227" depart="207" from="n43-n31" to="n5-n23"/>
<trip id="228" depart="210" from="n27-n13" to="n30-n42"/>
<trip id="229" depart="211" from="n19-n3" to="n31-n43"/>
<trip id="230" depart="212" from="n19-n3" to="n4-n20"/>
<trip id="231" depart="212" from="n27-n13" to="n31-n43"/>
<trip id="232" depart="213" from="n43-n31" to="n13-n27"/>
<trip id="233" depart="219" from="n19-n3" to="n28-n38"/>
<trip id="234" depart="219" from="n17-n1" to="n31-n43"/>
<trip id="235" depart="220" from="n43-n31" to="n1-n21"/>
<trip id="236" depart="220" from="n38-n28" to="n31-n43"/>
<trip id="237" depart="220" from="n43-n31" to="n3-n19"/>
<trip id="238" depart="221" from="n43-n31" to="n13-n27"/>
<trip id="239" depart="224" from="n42-n30" to="n3-n19"/>
<trip id="240" depart="224" from="n19-n3" to="n28-n38"/>
<trip id="241" depart="225" from="n27-n13" to="n22-n35"/>
<trip id="242" depart="225" from="n44-n32" to="n28-n38"/>
<trip id="243" depart="226" from="n27-n13" to="n31-n43"/>
<trip id="244" depart="226" from="n19-n3" to="n3-n19"/>
<trip id="245" depart="227" from="n19-n3" to="n5-n23"/>
<trip id="246" depart="227" from="n17-n1" to="n3-n19"/>
<trip id="247" depart="229" from="n38-n28" to="n13-n27"/>
<trip id="248" depart="231" from="n19-n3" to="n4-n20"/>
<trip id="249" depart="231" from="n43-n31" to="n13-n27"/>
<trip id="250" depart="233" from="n20-n4" to="n13-n27"/>
<trip id="251" depart="236" from="n38-n28" to="n30-n42"/>
<trip id="252" depart="238" from="n19-n3" to="n3-n19"/>
<trip id="253" depart="238" from="n17-n1" to="n22-n35"/>
<trip id="254" depart="240" from="n43-n31" to="n1-n17"/>
<trip id="255" depart="241" from="n27-n13" to="n24-n36"/>
<trip id="256" depart="249" from="n19-n3" to="n3-n19"/>
<trip id="257" depart="251" from="n20-n4" to="n29-n40"/>
<trip id="258" depart="251" from="n19-n3" to="n3-n19"/>
<trip id="259" depart="252" from="n19-n3" to="n31-n43"/>
<trip id="260" depart="252" from="n27-n13" to="n22-n34"/>
<trip id="261" depart="255" from="n17-n1" to="n31-n43"/>
<trip id="262" depart="256" from="n17-n1" to="n31-n43"/>
<trip id="263" depart="256" from="n27-n13" to="n22-n34"/>
<trip id="264" depart="256" from="n21-n1" to="n3-n19"/>
<trip id="265" depart="258" from="n42-n30" to="n26-n37"/>
<trip id="266" depart="259" from="n19-n3" to="n28-n38"/>
<trip id="267" depart="259" from="n45-n33" to="n3-n19"/>
<trip id="268" depart="260" from="n34-n22" to="n28-n38"/>
<trip id="269" depart="261" from="n21-n1" to="n13-n27"/>
<trip id="270" depart="261" from="n27-n13" to="n1-n21"/>
<trip id="271" depart="262" from="n36-n24" to="n28-n38"/>
<trip id="272" depart="262" from="n27-n13" to="n32-n44"/>
<trip id="273" depart="264" from="n43-n31" to="n3-n19"/>
<trip id="274" depart="265" from="n27-n13" to="n13-n27"/>
<trip id="275" depart="267" from="n27-n13" to="n13-n27"/>
<trip id="276" depart="267" from="n38-n28" to="n33-n45"/>
<trip id="277" depart="269" from="n42-n30" to="n1-n17"/>
<trip id="278" depart="271" from="n19-n3" to="n24-n36"/>
<trip id="279" depart="271" from="n43-n31" to="n28-n38"/>
<trip id="280" depart="273" from="n35-n22" to="n31-n43"/>
<trip id="281" depart="273" from="n38-n28" to="n31-n43"/>
<trip id="282" depart="275" from="n25-n9" to="n28-n38"/>
<trip id="283" depart="276" from="n27-n13" to="n3-n19"/>
<trip id="284" depart="276" from="n43-n31" to="n3-n19"/>
<trip id="285" depart="277" from="n21-n1" to="n3-n19"/>
<trip id="286" depart="277" from="n38-n28" to="n31-n43"/>
<trip id="287" depart="277" from="n43-n31" to="n4-n20"/>
<trip id="288" depart="277" from="n27-n13" to="n28-n38"/>
<trip id="289" depart="277" from="n45-n33" to="n9-n25"/>
<trip id="290" depart="277" from="n19-n3" to="n9-n25"/>
<trip id="291" depart="278" from="n27-n13" to="n28-n38"/>
<trip id="292" depart="280" from="n38-n28" to="n3-n19"/>
<trip id="293" depart="281" from="n39-n33" to="n3-n19"/>
<trip id="294" depart="282" from="n38-n28" to="n31-n43"/>
<trip id="295" depart="282" from="n43-n31" to="n31-n43"/>
<trip id="296" depart="283" from="n23-n5" to="n31-n43"/>
<trip id="297" depart="284" from="n38-n28" to="n31-n43"/>
<trip id="298" depart="284" from="n38-n28" to="n22-n35"/>
<trip id="299" depart="286" from="n43-n31" to="n28-n38"/>
<trip id="300" depart="290" from="n40-n29" to="n28-n38"/>
<trip id="301" depart="291" from="n21-n1" to="n13-n27"/>
<trip id="302" depart="294" from="n43-n31" to="n28-n38"/>
<trip id="303" depart="295" from="n43-n31" to="n3-n19"/>
<trip id="304" depart="296" from="n39-n33" to="n31-n43"/>
<trip id="305" depart="297" from="n19-n3" to="n33-n45"/>
<trip id="306" depart="298" from="n27-n13" to="n31-n43"/>
<trip id="307" depart="300" from="n19-n3" to="n31-n43"/>
<trip id="308" depart="300" from="n19-n3" to="n13-n27"/>
<trip id="309" depart="301" from="n38-n28" to="n31-n43"/>
<trip id="310" depart="302" from="n19-n3" to="n1-n21"/>
<trip id="311" depart="304" from="n43-n31" to="n31-n43"/>
<trip id="312" depart="305" from="n38-n28" to="n31-n43"/>
<trip id="313" depart="307" from="n19-n3" to="n13-n27"/>
<trip id="314" depart="309" from="n43-n31" to="n13-n27"/>
<trip id="315" depart="309" from="n19-n3" to="n29-n40"/>
<trip id="316" depart="309" from="n27-n13" to="n3-n19"/>
<trip id="317" depart="310" from="n42-n30" to="n24-n36"/>
<trip id="318" depart="312" from="n19-n3" to="n13-n27"/>
<trip id="319" depart="314" from="n19-n3" to="n31-n43"/>
<trip id="320" depart="315" from="n27-n13" to="n30-n42"/>
<trip id="321" depart="317" from="n27-n13" to="n13-n27"/>
<trip id="322" depart="317" from="n37-n26" to="n28-n38"/>
<trip id="323" depart="318" from="n37-n26" to="n3-n19"/>
<trip id="324" depart="319" from="n19-n3" to="n24-n36"/>
<trip id="325" depart="320" from="n43-n31" to="n31-n43"/>
<trip id="326" depart="321" from="n43-n31" to="n28-n38"/>
<trip id="327" depart="321" from="n19-n3" to="n28-n38"/>
<trip id="328" depart="321" from="n38-n28" to="n1-n21"/>
<trip id="329" depart="323" from="n45-n33" to="n26-n37"/>
<trip id="330" depart="323" from="n43-n31" to="n28-n38"/>
<trip id="331" depart="323" from="n40-n29" to="n28-n38"/>
<trip id="332" depart="323" from="n38-n28" to="n22-n35"/>
<trip id="333" depart="324" from="n18-n2" to="n31-n43"/>
<trip id="334" depart="325" from="n27-n13" to="n28-n38"/>
<trip id="335" depart="325" from="n27-n13" to="n31-n43"/>
<trip id="336" depart="325" from="n27-n13" to="n28-n38"/>
<trip id="337" depart="327" from="n19-n3" to="n3-n19"/>
<trip id="338" depart="328" from="n45-n33" to="n31-n43"/>
<trip id="339" depart="328" from="n27-n13" to="n31-n43"/>
<trip id="340" depart="330" from="n38-n28" to="n3-n19"/>
<trip id="341" depart="330" from="n20-n4" to="n24-n36"/>
<trip id="342" depart="330" from="n19-n3" to="n22-n34"/>
<trip id="343" depart="330" from="n43-n31" to="n30-n42"/>
<trip id="344" depart="332" from="n19-n3" to="n28-n38"/>
<trip id="345" depart="332" from="n43-n31" to="n29-n40"/>
<trip id="346" depart="332" from="n43-n31" to="n3-n19"/>
<trip id="347" depart="334" from="n19-n3" to="n3-n19"/>
<trip id="348" depart="337" from="n38-n28" to="n13-n27"/>
<trip id="349" depart="337" from="n38-n28" to="n3-n19"/>
<trip id="350" depart="339" from="n43-n31" to="n28-n38"/>
<trip id="351" depart="339" from="n42-n30" to="n31-n43"/>
<trip id="352" depart="340" from="n25-n9" to="n13-n27"/>
<trip id="353" depart="342" from="n38-n28" to="n13-n27"/>
<trip id="354" depart="343" from="n38-n28" to="n33-n39"/>
<trip id="355" depart="343" from="n37-n26" to="n29-n41"/>
<trip id="356" depart="345" from="n19-n3" to="n29-n41"/>
<trip id="357" depart="346" from="n19-n3" to="n3-n19"/>
<trip id="358" depart="347" from="n43-n31" to="n28-n38"/>
<trip id="359" depart="347" from="n27-n13" to="n31-n43"/>
<trip id="360" depart="347" from="n43-n31" to="n13-n27"/>
<trip id="361" depart="347" from="n37-n26" to="n13-n27"/>
<trip id="362" depart="349" from="n27-n13" to="n28-n38"/>
<trip id="363" depart="349" from="n21-n1" to="n3-n19"/>
<trip id="364" depart="350" from="n19-n3" to="n30-n42"/>
<trip id="365" depart="350" from="n23-n5" to="n22-n35"/>
<trip id="366" depart="352" from="n23-n5" to="n22-n35"/>
<trip id="367" depart="355" from="n27-n13" to="n33-n45"/>
<trip id="368" depart="356" from="n20-n4" to="n22-n35"/>
<trip id="369" depart="358" from="n38-n28" to="n31-n43"/>
<trip id="370" depart="358" from="n27-n13" to="n1-n21"/>
<trip id="371" depart="361" from="n38-n28" to="n13-n27"/>
<trip id="372" depart="362" from="n19-n3" to="n28-n38"/>
<trip id="373" depart="362" from="n41-n29" to="n3-n19"/>
<trip id="374" depart="363" from="n43-n31" to="n13-n27"/>
<trip id="375" depart="364" from="n43-n31" to="n31-n43"/>
<trip id="376" depart="365" from="n27-n13" to="n3-n19"/>
<trip id="377" depart="366" from="n19-n3" to="n3-n19"/>
<trip id="378" depart="367" from="n43-n31" to="n26-n37"/>
<trip id="379" depart="368" from="n18-n2" to="n13-n27"/>
<trip id="380" depart="369" from="n19-n3" to="n13-n27"/>
<trip id="381" depart="369" from="n19-n3" to="n28-n38"/>
<trip id="382" depart="370" from="n39-n33" to="n9-n25"/>
<trip id="383" depart="371" from="n38-n28" to="n13-n27"/>
<trip id="384" depart="375" from="n19-n3" to="n31-n43"/>
<trip id="385" depart="375" from="n43-n31" to="n4-n20"/>
<trip id="386" depart="375" from="n19-n3" to="n3-n19"/>
<trip id="387" depart="376" from="n43-n31" to="n28-n38"/>
<trip id="388" depart="378" from="n19-n3" to="n4-n20"/>
<trip id="389" depart="379" from="n27-n13" to="n28-n38"/>
<trip id="390" depart="380" from="n19-n3" to="n22-n34"/>
<trip id="391" depart="380" from="n43-n31" to="n13-n27"/>
<trip id="392" depart="381" from="n43-n31" to="n31-n43"/>
<trip id="393" depart="382" from="n43-n31" to="n1-n17"/>
<trip id="394" depart="384" from="n19-n3" to="n3-n19"/>
<trip id="395" depart="384" from="n38-n28" to="n5-n23"/>
<trip id="396" depart="384" from="n45-n33" to="n28-n38"/>
<trip id="397" depart="384" from="n43-n31" to="n3-n19"/>
<trip id="398" depart="385" from="n38-n28" to="n13-n27"/>
<trip id="399" depart="387" from="n27-n13" to="n22-n34"/>
<trip id="400" depart="387" from="n45-n33" to="n31-n43"/>
<trip id="401" depart="388" from="n27-n13" to="n31-n43"/>
<trip id="402" depart="388" from="n19-n3" to="n13-n27"/>
<trip id="403" depart="388" from="n19-n3" to="n28-n38"/>
<trip id="404" depart="388" from="n25-n9" to="n33-n45"/>
<trip id="405" depart="388" from="n43-n31" to="n3-n19"/>
<trip id="406" depart="389" from="n35-n22" to="n24-n36"/>
<trip id="407" depart="390" from="n27-n13" to="n31-n43"/>
<trip id="408" depart="390" from="n38-n28" to="n13-n27"/>
<trip id="409" depart="391" from="n38-n28" to="n9-n25"/>
<trip id="410" depart="392" from="n44-n32" to="n28-n38"/>
<trip id="411" depart="394" from="n38-n28" to="n31-n43"/>
<trip id="412" depart="395" from="n43-n31" to="n24-n36"/>
<trip id="413" depart="395" from="n44-n32" to="n3-n19"/>
<trip id="414" depart="395" from="n38-n28" to="n13-n27"/>
<trip id="415" depart="396" from="n19-n3" to="n13-n27"/>
<trip id="416" depart="397" from="n19-n3" to="n3-n19"/>
<trip id="417" depart="398" from="n19-n3" to="n24-n36"/>
<trip id="418" depart="399" from="n27-n13" to="n28-n38"/>
<trip id="419" depart="399" from="n43-n31" to="n3-n19"/>
<trip id="420" depart="399" from="n43-n31" to="n28-n38"/>
<trip id="421" depart="400" from="n43-n31" to="n31-n43"/>
<trip id="422" depart="401" from="n19-n3" to="n28-n38"/>
<trip id="423" depart="401" from="n21-n1" to="n3-n19"/>
<trip id="424" depart="401" from="n43-n31" to="n13-n27"/>
<trip id="425" depart="401" from="n43-n31" to="n28-n38"/>
<trip id="426" depart="402" from="n18-n2" to="n28-n38"/>
<trip id="427" depart="405" from="n25-n9" to="n3-n19"/>
<trip id="428" depart="405" from="n19-n3" to="n13-n27"/>
<trip id="429" depart="405" from="n38-n28" to="n13-n27"/>
<trip id="430" depart="406" from="n27-n13" to="n22-n34"/>
<trip id="431" depart="407" from="n27-n13" to="n28-n38"/>
<trip id="432" depart="407" from="n43-n31" to="n31-n43"/>
<trip id="433" depart="407" from="n38-n28" to="n3-n19"/>
<trip id="434" depart="408" from="n44-n32" to="n3-n19"/>
<trip id="435" depart="411" from="n38-n28" to="n2-n18"/>
<trip id="436" depart="413" from="n19-n3" to="n3-n19"/>
<trip id="437" depart="414" from="n38-n28" to="n22-n34"/>
<trip id="438" depart="416" from="n27-n13" to="n5-n23"/>
<trip id="439" depart="416" from="n43-n31" to="n29-n41"/>
<trip id="440" depart="416" from="n19-n3" to="n28-n38"/>
<trip id="441" depart="416" from="n42-n30" to="n1-n17"/>
<trip id="442" depart="418" from="n23-n5" to="n3-n19"/>
<trip id="443" depart="419" from="n43-n31" to="n1-n21"/>
<trip id="444" depart="420" from="n43-n31" to="n31-n43"/>
<trip id="445" depart="422" from="n19-n3" to="n28-n38"/>
<trip id="446" depart="426" from="n38-n28" to="n5-n23"/>
<trip id="447" depart="427" from="n19-n3" to="n28-n38"/>
<trip id="448" depart="427" from="n37-n26" to="n1-n17"/>
<trip id="449" depart="428" from="n45-n33" to="n22-n35"/>
<trip id="450" depart="429" from="n40-n29" to="n31-n43"/>
<trip id="451" depart="430" from="n43-n31" to="n2-n18"/>
<trip id="452" depart="430" from="n43-n31" to="n3-n19"/>
<trip id="453" depart="432" from="n39-n33" to="n13-n27"/>
<trip id="454" depart="433" from="n19-n3" to="n13-n27"/>
<trip id="455" depart="433" from="n38-n28" to="n13-n27"/>
<trip id="456" depart="434" from="n34-n22" to="n22-n34"/>
<trip id="457" depart="436" from="n43-n31" to="n33-n39"/>
<trip id="458" depart="437" from="n19-n3" to="n28-n38"/>
<trip id="459" depart="441" from="n19-n3" to="n28-n38"/>
<trip id="460" depart="443" from="n19-n3" to="n2-n18"/>
<trip id="461" depart="443" from="n19-n3" to="n3-n19"/>
<trip id="462" depart="443" from="n38-n28" to="n13-n27"/>
<trip id="463" depart="445" from="n19-n3" to="n3-n19"/>
<trip id="464" depart="447" from="n43-n31" to="n3-n19"/>
<trip id="465" depart="447" from="n34-n22" to="n31-n43"/>
<trip id="466" depart="448" from="n38-n28" to="n3-n19"/>
<trip id="467" depart="449" from="n38-n28" to="n3-n19"/>
<trip id="468" depart="449" from="n43-n31" to="n31-n43"/>
<trip id="469" depart="449" from="n34-n22" to="n29-n41"/>
<trip id="470" depart="450" from="n18-n2" to="n13-n27"/>
<trip id="471" depart="453" from="n19-n3" to="n28-n38"/>
<trip id="472" depart="453" from="n27-n13" to="n13-n27"/>
<trip id="473" depart="453" from="n44-n32" to="n22-n34"/>
<trip id="474" depart="454" from="n43-n31" to="n3-n19"/>
<trip id="475" depart="454" from="n27-n13" to="n2-n18"/>
<trip id="476" depart="457" from="n23-n5" to="n31-n43"/>
<trip id="477" depart="457" from="n27-n13" to="n31-n43"/>
<trip id="478" depart="459" from="n19-n3" to="n31-n43"/>
<trip id="479" depart="461" from="n38-n28" to="n30-n42"/>
<trip id="480" depart="461" from="n27-n13" to="n28-n38"/>
<trip id="481" depart="462" from="n19-n3" to="n3-n19"/>
<trip id="482" depart="468" from="n43-n31" to="n31-n43"/>
<trip id="483" depart="468" from="n36-n24" to="n28-n38"/>
<trip id="484" depart="471" from="n19-n3" to="n28-n38"/>
<trip id="485" depart="471" from="n34-n22" to="n31-n43"/>
<trip id="486" depart="474" from="n19-n3" to="n31-n43"/>
<trip id="487" depart="474" from="n39-n33" to="n13-n27"/>
<trip id="488" depart="475" from="n43-n31" to="n31-n43"/>
<trip id="489" depart="476" from="n19-n3" to="n1-n17"/>
<trip id="490" depart="476" from="n27-n13" to="n1-n21"/>
<trip id="491" depart="477" from="n38-n28" to="n28-n38"/>
<trip id="492" depart="478" from="n38-n28" to="n31-n43"/>
<trip id="493" depart="479" from="n42-n30" to="n1-n17"/>
<trip id="494" depart="481" from="n19-n3" to="n29-n40"/>
<trip id="495" depart="483" from="n27-n13" to="n28-n38"/>
<trip id="496" depart="484" from="n27-n13" to="n28-n38"/>
<trip id="497" depart="487" from="n18-n2" to="n31-n43"/>
<trip id="498" depart="487" from="n45-n33" to="n9-n25"/>
<trip id="499" depart="488" from="n42-n30" to="n3-n19"/>
<trip id="500" depart="488" from="n45-n33" to="n1-n21"/>
<trip id="501" depart="490" from="n27-n13" to="n13-n27"/>
<trip id="502" depart="490" from="n19-n3" to="n31-n43"/>
<trip id="503" depart="492" from="n38-n28" to="n3-n19"/>
<trip id="504" depart="493" from="n27-n13" to="n31-n43"/>
<trip id="505" depart="493" from="n38-n28" to="n28-n38"/>
<trip id="506" depart="496" from="n41-n29" to="n13-n27"/>
<trip id="507" depart="497" from="n19-n3" to="n1-n17"/>
<trip id="508" depart="498" from="n43-n31" to="n3-n19"/>
<trip id="509" depart="499" from="n19-n3" to="n30-n42"/>
<trip id="510" depart="500" from="n19-n3" to="n3-n19"/>
<trip id="511" depart="500" from="n19-n3" to="n28-n38"/>
<trip id="512" depart="501" from="n37-n26" to="n32-n44"/>
<trip id="513" depart="502" from="n27-n13" to="n28-n38"/>
<trip id="514" depart="503" from="n38-n28" to="n28-n38"/>
<trip id="515" depart="504" from="n43-n31" to="n26-n37"/>
<trip id="516" depart="505" from="n43-n31" to="n13-n27"/>
<trip id="517" depart="506" from="n40-n29" to="n31-n43"/>
<trip id="518" depart="506" from="n23-n5" to="n26-n37"/>
<trip id="519" depart="507" from="n19-n3" to="n28-n38"/>
<trip id="520" depart="507" from="n19-n3" to="n31-n43"/>
<trip id="521" depart="507" from="n19-n3" to="n13-n27"/>
<trip id="522" depart="507" from="n38-n28" to="n28-n38"/>
<trip id="523" depart="508" from="n27-n13" to="n31-n43"/>