<routes>
    <vType accel="1.0" decel="5.0" id="Car" jmIgnoreKeepClearTime="100.0" maxSpeed="30" length="3" />
        
    <!--emergencyDecel="0.0"-->
    <trip id="0" depart="0" from="n19-n3" to="n31-n43"/>
<trip id="1" depart="0" from="n19-n3" to="n13-n27"/>
<trip id="2" depart="3" from="n19-n3" to="n31-n43"/>
<trip id="3" depart="3" from="n19-n3" to="n31-n43"/>
<trip id="4" depart="3" from="n38-n28" to="n31-n43"/>
<trip id="5" depart="4" from="n19-n3" to="n31-n43"/>
<trip id="6" depart="4" from="n38-n28" to="n31-n43"/>
<trip id="7" depart="4" from="n19-n3" to="n13-n27"/>
<trip id="8" depart="6" from="n19-n3" to="n31-n43"/>
<trip id="9" depart="6" from="n38-n28" to="n31-n43"/>
<trip id="10" depart="6" from="n38-n28" to="n31-n43"/>
<trip id="11" depart="7" from="n38-n28" to="n31-n43"/>
<trip id="12" depart="7" from="n38-n28" to="n31-n43"/>
<trip id="13" depart="7" from="n38-n28" to="n31-n43"/>
<trip id="14" depart="8" from="n19-n3" to="n31-n43"/>
<trip id="15" depart="9" from="n19-n3" to="n31-n43"/>
<trip id="16" depart="9" from="n19-n3" to="n31-n43"/>
<trip id="17" depart="9" from="n19-n3" to="n31-n43"/>
<trip id="18" depart="10" from="n19-n3" to="n13-n27"/>
<trip id="19" depart="10" from="n19-n3" to="n31-n43"/>
<trip id="20" depart="10" from="n38-n28" to="n31-n43"/>
<trip id="21" depart="11" from="n19-n3" to="n31-n43"/>
<trip id="22" depart="11" from="n38-n28" to="n31-n43"/>
<trip id="23" depart="11" from="n38-n28" to="n13-n27"/>
<trip id="24" depart="12" from="n38-n28" to="n31-n43"/>
<trip id="25" depart="12" from="n38-n28" to="n31-n43"/>
<trip id="26" depart="12" from="n19-n3" to="n31-n43"/>
<trip id="27" depart="12" from="n19-n3" to="n13-n27"/>
<trip id="28" depart="13" from="n38-n28" to="n31-n43"/>
<trip id="29" depart="13" from="n19-n3" to="n31-n43"/>
<trip id="30" depart="13" from="n19-n3" to="n31-n43"/>
<trip id="31" depart="14" from="n38-n28" to="n31-n43"/>
<trip id="32" depart="14" from="n19-n3" to="n31-n43"/>
<trip id="33" depart="14" from="n19-n3" to="n31-n43"/>
<trip id="34" depart="14" from="n38-n28" to="n31-n43"/>
<trip id="35" depart="14" from="n19-n3" to="n13-n27"/>
<trip id="36" depart="15" from="n19-n3" to="n31-n43"/>
<trip id="37" depart="15" from="n19-n3" to="n31-n43"/>
<trip id="38" depart="15" from="n19-n3" to="n31-n43"/>
<trip id="39" depart="15" from="n38-n28" to="n31-n43"/>
<trip id="40" depart="15" from="n38-n28" to="n31-n43"/>
<trip id="41" depart="16" from="n38-n28" to="n31-n43"/>
<trip id="42" depart="16" from="n38-n28" to="n13-n27"/>
<trip id="43" depart="17" from="n19-n3" to="n13-n27"/>
<trip id="44" depart="17" from="n19-n3" to="n31-n43"/>
<trip id="45" depart="18" from="n38-n28" to="n31-n43"/>
<trip id="46" depart="19" from="n38-n28" to="n13-n27"/>
<trip id="47" depart="20" from="n19-n3" to="n31-n43"/>
<trip id="48" depart="20" from="n19-n3" to="n31-n43"/>
<trip id="49" depart="21" from="n19-n3" to="n31-n43"/>
<trip id="50" depart="21" from="n19-n3" to="n13-n27"/>
<trip id="51" depart="22" from="n19-n3" to="n31-n43"/>
<trip id="52" depart="22" from="n38-n28" to="n31-n43"/>
<trip id="53" depart="23" from="n38-n28" to="n31-n43"/>
<trip id="54" depart="23" from="n19-n3" to="n13-n27"/>
<trip id="55" depart="23" from="n38-n28" to="n13-n27"/>
<trip id="56" depart="23" from="n19-n3" to="n31-n43"/>
<trip id="57" depart="23" from="n38-n28" to="n31-n43"/>
<trip id="58" depart="24" from="n19-n3" to="n31-n43"/>
<trip id="59" depart="24" from="n38-n28" to="n31-n43"/>
<trip id="60" depart="24" from="n19-n3" to="n31-n43"/>
<trip id="61" depart="25" from="n19-n3" to="n31-n43"/>
<trip id="62" depart="25" from="n19-n3" to="n31-n43"/>
<trip id="63" depart="25" from="n38-n28" to="n31-n43"/>
<trip id="64" depart="26" from="n19-n3" to="n31-n43"/>
<trip id="65" depart="29" from="n19-n3" to="n13-n27"/>
<trip id="66" depart="29" from="n19-n3" to="n31-n43"/>
<trip id="67" depart="29" from="n38-n28" to="n31-n43"/>
<trip id="68" depart="30" from="n19-n3" to="n13-n27"/>
<trip id="69" depart="30" from="n38-n28" to="n31-n43"/>
<trip id="70" depart="30" from="n19-n3" to="n13-n27"/>
<trip id="71" depart="31" from="n38-n28" to="n31-n43"/>
<trip id="72" depart="31" from="n19-n3" to="n31-n43"/>
<trip id="73" depart="31" from="n19-n3" to="n31-n43"/>
<trip id="74" depart="32" from="n19-n3" to="n31-n43"/>
<trip id="75" depart="32" from="n19-n3" to="n31-n43"/>
<trip id="76" depart="32" from="n19-n3" to="n31-n43"/>
<trip id="77" depart="34" from="n38-n28" to="n31-n43"/>
<trip id="78" depart="34" from="n19-n3" to="n31-n43"/>
<trip id="79" depart="34" from="n38-n28" to="n31-n43"/>
<trip id="80" depart="35" from="n38-n28" to="n13-n27"/>
<trip id="81" depart="35" from="n19-n3" to="n31-n43"/>
<trip id="82" depart="37" from="n19-n3" to="n31-n43"/>
<trip id="83" depart="37" from="n19-n3" to="n13-n27"/>
<trip id="84" depart="37" from="n19-n3" to="n31-n43"/>
<trip id="85" depart="38" from="n19-n3" to="n31-n43"/>
<trip id="86" depart="38" from="n19-n3" to="n13-n27"/>
<trip id="87" depart="38" from="n19-n3" to="n31-n43"/>
<trip id="88" depart="39" from="n19-n3" to="n31-n43"/>
<trip id="89" depart="39" from="n38-n28" to="n31-n43"/>
<trip id="90" depart="39" from="n19-n3" to="n13-n27"/>
<trip id="91" depart="39" from="n38-n28" to="n13-n27"/>
<trip id="92" depart="40" from="n19-n3" to="n13-n27"/>
<trip id="93" depart="42" from="n19-n3" to="n31-n43"/>
<trip id="94" depart="42" from="n19-n3" to="n31-n43"/>
<trip id="95" depart="42" from="n19-n3" to="n31-n43"/>
<trip id="96" depart="42" from="n38-n28" to="n31-n43"/>
<trip id="97" depart="43" from="n19-n3" to="n31-n43"/>
<trip id="98" depart="43" from="n19-n3" to="n31-n43"/>
<trip id="99" depart="43" from="n19-n3" to="n13-n27"/>
<trip id="100" depart="43" from="n38-n28" to="n31-n43"/>
<trip id="101" depart="43" from="n19-n3" to="n31-n43"/>
<trip id="102" depart="43" from="n19-n3" to="n13-n27"/>
<trip id="103" depart="44" from="n38-n28" to="n31-n43"/>
<trip id="104" depart="44" from="n38-n28" to="n31-n43"/>
<trip id="105" depart="45" from="n19-n3" to="n31-n43"/>
<trip id="106" depart="46" from="n19-n3" to="n31-n43"/>
<trip id="107" depart="46" from="n19-n3" to="n31-n43"/>
<trip id="108" depart="46" from="n19-n3" to="n31-n43"/>
<trip id="109" depart="47" from="n19-n3" to="n31-n43"/>
<trip id="110" depart="48" from="n38-n28" to="n31-n43"/>
<trip id="111" depart="48" from="n19-n3" to="n31-n43"/>
<trip id="112" depart="49" from="n19-n3" to="n31-n43"/>
<trip id="113" depart="49" from="n38-n28" to="n13-n27"/>
<trip id="114" depart="50" from="n38-n28" to="n31-n43"/>
<trip id="115" depart="50" from="n19-n3" to="n13-n27"/>
<trip id="116" depart="51" from="n38-n28" to="n31-n43"/>
<trip id="117" depart="51" from="n38-n28" to="n31-n43"/>
<trip id="118" depart="52" from="n38-n28" to="n13-n27"/>
<trip id="119" depart="52" from="n19-n3" to="n13-n27"/>
<trip id="120" depart="52" from="n19-n3" to="n31-n43"/>
<trip id="121" depart="54" from="n38-n28" to="n13-n27"/>
<trip id="122" depart="54" from="n38-n28" to="n31-n43"/>
<trip id="123" depart="54" from="n19-n3" to="n31-n43"/>
<trip id="124" depart="55" from="n38-n28" to="n31-n43"/>
<trip id="125" depart="56" from="n38-n28" to="n13-n27"/>
<trip id="126" depart="56" from="n38-n28" to="n31-n43"/>
<trip id="127" depart="56" from="n38-n28" to="n31-n43"/>
<trip id="128" depart="57" from="n19-n3" to="n31-n43"/>
<trip id="129" depart="58" from="n19-n3" to="n31-n43"/>
<trip id="130" depart="58" from="n19-n3" to="n31-n43"/>
<trip id="131" depart="59" from="n19-n3" to="n31-n43"/>
<trip id="132" depart="59" from="n38-n28" to="n31-n43"/>
<trip id="133" depart="59" from="n19-n3" to="n31-n43"/>
<trip id="134" depart="59" from="n19-n3" to="n13-n27"/>
<trip id="135" depart="60" from="n38-n28" to="n31-n43"/>
<trip id="136" depart="60" from="n19-n3" to="n31-n43"/>
<trip id="137" depart="60" from="n19-n3" to="n31-n43"/>
<trip id="138" depart="60" from="n19-n3" to="n31-n43"/>
<trip id="139" depart="60" from="n19-n3" to="n31-n43"/>
<trip id="140" depart="60" from="n38-n28" to="n31-n43"/>
<trip id="141" depart="61" from="n19-n3" to="n13-n27"/>
<trip id="142" depart="61" from="n19-n3" to="n31-n43"/>
<trip id="143" depart="61" from="n19-n3" to="n31-n43"/>
<trip id="144" depart="61" from="n19-n3" to="n13-n27"/>
<trip id="145" depart="62" from="n19-n3" to="n31-n43"/>
<trip id="146" depart="62" from="n38-n28" to="n31-n43"/>
<trip id="147" depart="62" from="n19-n3" to="n13-n27"/>
<trip id="148" depart="63" from="n38-n28" to="n13-n27"/>
<trip id="149" depart="64" from="n38-n28" to="n31-n43"/>
<trip id="150" depart="64" from="n19-n3" to="n13-n27"/>
<trip id="151" depart="65" from="n19-n3" to="n13-n27"/>
<trip id="152" depart="65" from="n19-n3" to="n31-n43"/>
<trip id="153" depart="66" from="n38-n28" to="n31-n43"/>
<trip id="154" depart="66" from="n38-n28" to="n13-n27"/>
<trip id="155" depart="66" from="n19-n3" to="n31-n43"/>
<trip id="156" depart="67" from="n19-n3" to="n31-n43"/>
<trip id="157" depart="67" from="n19-n3" to="n31-n43"/>
<trip id="158" depart="68" from="n19-n3" to="n31-n43"/>
<trip id="159" depart="68" from="n38-n28" to="n31-n43"/>
<trip id="160" depart="68" from="n38-n28" to="n31-n43"/>
<trip id="161" depart="68" from="n19-n3" to="n31-n43"/>
<trip id="162" depart="68" from="n19-n3" to="n31-n43"/>
<trip id="163" depart="68" from="n19-n3" to="n13-n27"/>
<trip id="164" depart="69" from="n38-n28" to="n31-n43"/>
<trip id="165" depart="69" from="n38-n28" to="n31-n43"/>
<trip id="166" depart="70" from="n38-n28" to="n31-n43"/>
<trip id="167" depart="71" from="n19-n3" to="n13-n27"/>
<trip id="168" depart="71" from="n38-n28" to="n31-n43"/>
<trip id="169" depart="71" from="n19-n3" to="n31-n43"/>
<trip id="170" depart="72" from="n38-n28" to="n31-n43"/>
<trip id="171" depart="72" from="n38-n28" to="n31-n43"/>
<trip id="172" depart="72" from="n19-n3" to="n31-n43"/>
<trip id="173" depart="73" from="n19-n3" to="n31-n43"/>
<trip id="174" depart="73" from="n38-n28" to="n31-n43"/>
<trip id="175" depart="73" from="n38-n28" to="n31-n43"/>
<trip id="176" depart="74" from="n38-n28" to="n31-n43"/>
<trip id="177" depart="74" from="n19-n3" to="n13-n27"/>
<trip id="178" depart="76" from="n38-n28" to="n31-n43"/>
<trip id="179" depart="76" from="n38-n28" to="n31-n43"/>
<trip id="180" depart="77" from="n19-n3" to="n31-n43"/>
<trip id="181" depart="77" from="n38-n28" to="n31-n43"/>
<trip id="182" depart="77" from="n19-n3" to="n13-n27"/>
<trip id="183" depart="77" from="n38-n28" to="n31-n43"/>
<trip id="184" depart="78" from="n38-n28" to="n31-n43"/>
<trip id="185" depart="78" from="n19-n3" to="n31-n43"/>
<trip id="186" depart="78" from="n19-n3" to="n31-n43"/>
<trip id="187" depart="79" from="n19-n3" to="n31-n43"/>
<trip id="188" depart="79" from="n19-n3" to="n31-n43"/>
<trip id="189" depart="79" from="n19-n3" to="n31-n43"/>
<trip id="190" depart="79" from="n38-n28" to="n31-n43"/>
<trip id="191" depart="80" from="n19-n3" to="n31-n43"/>
<trip id="192" depart="80" from="n38-n28" to="n31-n43"/>
<trip id="193" depart="81" from="n19-n3" to="n31-n43"/>
<trip id="194" depart="81" from="n19-n3" to="n31-n43"/>
<trip id="195" depart="81" from="n19-n3" to="n31-n43"/>
<trip id="196" depart="82" from="n19-n3" to="n31-n43"/>
<trip id="197" depart="82" from="n38-n28" to="n31-n43"/>
<trip id="198" depart="82" from="n19-n3" to="n31-n43"/>
<trip id="199" depart="82" from="n38-n28" to="n13-n27"/>
<trip id="200" depart="82" from="n19-n3" to="n31-n43"/>
<trip id="201" depart="82" from="n19-n3" to="n31-n43"/>
<trip id="202" depart="82" from="n19-n3" to="n31-n43"/>
<trip id="203" depart="82" from="n19-n3" to="n31-n43"/>
<trip id="204" depart="83" from="n19-n3" to="n31-n43"/>
<trip id="205" depart="83" from="n38-n28" to="n31-n43"/>
<trip id="206" depart="83" from="n38-n28" to="n31-n43"/>
<trip id="207" depart="84" from="n38-n28" to="n31-n43"/>
<trip id="208" depart="84" from="n19-n3" to="n31-n43"/>
<trip id="209" depart="85" from="n19-n3" to="n31-n43"/>
<trip id="210" depart="86" from="n38-n28" to="n31-n43"/>
<trip id="211" depart="86" from="n38-n28" to="n31-n43"/>
<trip id="212" depart="86" from="n19-n3" to="n13-n27"/>
<trip id="213" depart="86" from="n19-n3" to="n31-n43"/>
<trip id="214" depart="87" from="n19-n3" to="n31-n43"/>
<trip id="215" depart="87" from="n19-n3" to="n13-n27"/>
<trip id="216" depart="88" from="n19-n3" to="n31-n43"/>
<trip id="217" depart="88" from="n19-n3" to="n31-n43"/>
<trip id="218" depart="88" from="n19-n3" to="n31-n43"/>
<trip id="219" depart="89" from="n19-n3" to="n31-n43"/>
<trip id="220" depart="89" from="n38-n28" to="n31-n43"/>
<trip id="221" depart="89" from="n38-n28" to="n31-n43"/>
<trip id="222" depart="90" from="n38-n28" to="n31-n43"/>
<trip id="223" depart="91" from="n38-n28" to="n31-n43"/>
<trip id="224" depart="91" from="n38-n28" to="n31-n43"/>
<trip id="225" depart="91" from="n38-n28" to="n13-n27"/>
<trip id="226" depart="93" from="n38-n28" to="n31-n43"/>
<trip id="227" depart="94" from="n38-n28" to="n31-n43"/>
<trip id="228" depart="94" from="n38-n28" to="n31-n43"/>
<trip id="229" depart="95" from="n38-n28" to="n31-n43"/>
<trip id="230" depart="96" from="n38-n28" to="n31-n43"/>
<trip id="231" depart="97" from="n19-n3" to="n31-n43"/>
<trip id="232" depart="97" from="n19-n3" to="n31-n43"/>
<trip id="233" depart="97" from="n19-n3" to="n31-n43"/>
<trip id="234" depart="97" from="n38-n28" to="n13-n27"/>
<trip id="235" depart="98" from="n19-n3" to="n31-n43"/>
<trip id="236" depart="99" from="n38-n28" to="n31-n43"/>
<trip id="237" depart="100" from="n38-n28" to="n13-n27"/>
<trip id="238" depart="100" from="n38-n28" to="n31-n43"/>
<trip id="239" depart="100" from="n38-n28" to="n31-n43"/>
<trip id="240" depart="100" from="n38-n28" to="n31-n43"/>
<trip id="241" depart="101" from="n19-n3" to="n31-n43"/>
<trip id="242" depart="102" from="n38-n28" to="n31-n43"/>
<trip id="243" depart="103" from="n38-n28" to="n31-n43"/>
<trip id="244" depart="103" from="n38-n28" to="n31-n43"/>
<trip id="245" depart="103" from="n38-n28" to="n31-n43"/>
<trip id="246" depart="103" from="n38-n28" to="n13-n27"/>
<trip id="247" depart="103" from="n19-n3" to="n31-n43"/>
<trip id="248" depart="103" from="n38-n28" to="n31-n43"/>
<trip id="249" depart="104" from="n19-n3" to="n31-n43"/>
<trip id="250" depart="104" from="n38-n28" to="n13-n27"/>
<trip id="251" depart="105" from="n19-n3" to="n31-n43"/>
<trip id="252" depart="106" from="n38-n28" to="n13-n27"/>
<trip id="253" depart="107" from="n19-n3" to="n31-n43"/>
<trip id="254" depart="108" from="n19-n3" to="n31-n43"/>
<trip id="255" depart="108" from="n38-n28" to="n31-n43"/>
<trip id="256" depart="108" from="n38-n28" to="n31-n43"/>
<trip id="257" depart="109" from="n38-n28" to="n31-n43"/>
<trip id="258" depart="109" from="n19-n3" to="n31-n43"/>
<trip id="259" depart="109" from="n19-n3" to="n31-n43"/>
<trip id="260" depart="110" from="n19-n3" to="n31-n43"/>
<trip id="261" depart="110" from="n38-n28" to="n31-n43"/>
<trip id="262" depart="110" from="n38-n28" to="n31-n43"/>
<trip id="263" depart="110" from="n38-n28" to="n31-n43"/>
<trip id="264" depart="110" from="n19-n3" to="n13-n27"/>
<trip id="265" depart="111" from="n19-n3" to="n31-n43"/>
<trip id="266" depart="112" from="n19-n3" to="n31-n43"/>
<trip id="267" depart="112" from="n19-n3" to="n13-n27"/>
<trip id="268" depart="113" from="n38-n28" to="n13-n27"/>
<trip id="269" depart="113" from="n19-n3" to="n31-n43"/>
<trip id="270" depart="113" from="n19-n3" to="n31-n43"/>
<trip id="271" depart="113" from="n19-n3" to="n31-n43"/>
<trip id="272" depart="113" from="n38-n28" to="n31-n43"/>
<trip id="273" depart="114" from="n38-n28" to="n13-n27"/>
<trip id="274" depart="114" from="n19-n3" to="n31-n43"/>
<trip id="275" depart="115" from="n19-n3" to="n31-n43"/>
<trip id="276" depart="115" from="n19-n3" to="n31-n43"/>
<trip id="277" depart="115" from="n38-n28" to="n31-n43"/>
<trip id="278" depart="116" from="n19-n3" to="n13-n27"/>
<trip id="279" depart="116" from="n19-n3" to="n31-n43"/>
<trip id="280" depart="116" from="n19-n3" to="n31-n43"/>
<trip id="281" depart="117" from="n38-n28" to="n31-n43"/>
<trip id="282" depart="118" from="n19-n3" to="n31-n43"/>
<trip id="283" depart="118" from="n38-n28" to="n31-n43"/>
<trip id="284" depart="118" from="n19-n3" to="n31-n43"/>
<trip id="285" depart="119" from="n19-n3" to="n31-n43"/>
<trip id="286" depart="119" from="n19-n3" to="n13-n27"/>
<trip id="287" depart="120" from="n38-n28" to="n31-n43"/>
<trip id="288" depart="120" from="n19-n3" to="n31-n43"/>
<trip id="289" depart="120" from="n19-n3" to="n31-n43"/>
<trip id="290" depart="121" from="n19-n3" to="n13-n27"/>
<trip id="291" depart="121" from="n19-n3" to="n31-n43"/>
<trip id="292" depart="122" from="n38-n28" to="n31-n43"/>
<trip id="293" depart="123" from="n19-n3" to="n31-n43"/>
<trip id="294" depart="124" from="n19-n3" to="n31-n43"/>
<trip id="295" depart="125" from="n38-n28" to="n13-n27"/>
<trip id="296" depart="125" from="n19-n3" to="n31-n43"/>
<trip id="297" depart="125" from="n19-n3" to="n31-n43"/>
<trip id="298" depart="126" from="n19-n3" to="n31-n43"/>
<trip id="299" depart="126" from="n38-n28" to="n31-n43"/>
<trip id="300" depart="126" from="n19-n3" to="n13-n27"/>
<trip id="301" depart="127" from="n19-n3" to="n31-n43"/>
<trip id="302" depart="127" from="n38-n28" to="n31-n43"/>
<trip id="303" depart="127" from="n38-n28" to="n31-n43"/>
<trip id="304" depart="127" from="n19-n3" to="n31-n43"/>
<trip id="305" depart="127" from="n38-n28" to="n31-n43"/>
<trip id="306" depart="128" from="n19-n3" to="n31-n43"/>
<trip id="307" depart="128" from="n19-n3" to="n31-n43"/>
<trip id="308" depart="128" from="n19-n3" to="n31-n43"/>
<trip id="309" depart="129" from="n19-n3" to="n31-n43"/>
<trip id="310" depart="129" from="n19-n3" to="n31-n43"/>
<trip id="311" depart="129" from="n19-n3" to="n13-n27"/>
<trip id="312" depart="129" from="n19-n3" to="n31-n43"/>
<trip id="313" depart="129" from="n19-n3" to="n13-n27"/>
<trip id="314" depart="129" from="n38-n28" to="n31-n43"/>
<trip id="315" depart="130" from="n38-n28" to="n13-n27"/>
<trip id="316" depart="130" from="n38-n28" to="n13-n27"/>
<trip id="317" depart="130" from="n19-n3" to="n13-n27"/>
<trip id="318" depart="130" from="n38-n28" to="n13-n27"/>
<trip id="319" depart="130" from="n38-n28" to="n13-n27"/>
<trip id="320" depart="130" from="n19-n3" to="n13-n27"/>
<trip id="321" depart="130" from="n19-n3" to="n31-n43"/>
<trip id="322" depart="131" from="n19-n3" to="n31-n43"/>
<trip id="323" depart="131" from="n38-n28" to="n31-n43"/>
<trip id="324" depart="132" from="n19-n3" to="n31-n43"/>
<trip id="325" depart="132" from="n19-n3" to="n31-n43"/>
<trip id="326" depart="132" from="n19-n3" to="n31-n43"/>
<trip id="327" depart="132" from="n38-n28" to="n13-n27"/>
<trip id="328" depart="132" from="n19-n3" to="n31-n43"/>
<trip id="329" depart="132" from="n38-n28" to="n31-n43"/>
<trip id="330" depart="133" from="n19-n3" to="n13-n27"/>
<trip id="331" depart="133" from="n19-n3" to="n31-n43"/>
<trip id="332" depart="133" from="n19-n3" to="n31-n43"/>
<trip id="333" depart="134" from="n38-n28" to="n31-n43"/>
<trip id="334" depart="134" from="n38-n28" to="n31-n43"/>
<trip id="335" depart="134" from="n19-n3" to="n31-n43"/>
<trip id="336" depart="134" from="n38-n28" to="n13-n27"/>
<trip id="337" depart="134" from="n38-n28" to="n31-n43"/>
<trip id="338" depart="134" from="n38-n28" to="n31-n43"/>
<trip id="339" depart="134" from="n19-n3" to="n13-n27"/>
<trip id="340" depart="134" from="n19-n3" to="n31-n43"/>
<trip id="341" depart="134" from="n38-n28" to="n31-n43"/>
<trip id="342" depart="135" from="n38-n28" to="n31-n43"/>
<trip id="343" depart="135" from="n19-n3" to="n13-n27"/>
<trip id="344" depart="136" from="n19-n3" to="n13-n27"/>
<trip id="345" depart="137" from="n38-n28" to="n31-n43"/>
<trip id="346" depart="137" from="n19-n3" to="n31-n43"/>
<trip id="347" depart="137" from="n19-n3" to="n31-n43"/>
<trip id="348" depart="138" from="n19-n3" to="n13-n27"/>
<trip id="349" depart="138" from="n19-n3" to="n13-n27"/>
<trip id="350" depart="139" from="n38-n28" to="n31-n43"/>
<trip id="351" depart="139" from="n19-n3" to="n31-n43"/>
<trip id="352" depart="139" from="n19-n3" to="n31-n43"/>
<trip id="353" depart="140" from="n19-n3" to="n31-n43"/>
<trip id="354" depart="141" from="n19-n3" to="n31-n43"/>
<trip id="355" depart="141" from="n38-n28" to="n31-n43"/>
<trip id="356" depart="142" from="n38-n28" to="n31-n43"/>
<trip id="357" depart="143" from="n19-n3" to="n31-n43"/>
<trip id="358" depart="143" from="n19-n3" to="n31-n43"/>
<trip id="359" depart="143" from="n38-n28" to="n31-n43"/>
<trip id="360" depart="144" from="n19-n3" to="n31-n43"/>
<trip id="361" depart="144" from="n19-n3" to="n31-n43"/>
<trip id="362" depart="145" from="n38-n28" to="n31-n43"/>
<trip id="363" depart="145" from="n38-n28" to="n13-n27"/>
<trip id="364" depart="145" from="n19-n3" to="n31-n43"/>
<trip id="365" depart="145" from="n19-n3" to="n31-n43"/>
<trip id="366" depart="146" from="n38-n28" to="n31-n43"/>
<trip id="367" depart="148" from="n19-n3" to="n31-n43"/>
<trip id="368" depart="149" from="n19-n3" to="n31-n43"/>
<trip id="369" depart="149" from="n19-n3" to="n31-n43"/>
<trip id="370" depart="151" from="n19-n3" to="n31-n43"/>
<trip id="371" depart="151" from="n38-n28" to="n31-n43"/>
<trip id="372" depart="151" from="n38-n28" to="n13-n27"/>
<trip id="373" depart="152" from="n19-n3" to="n13-n27"/>
<trip id="374" depart="152" from="n19-n3" to="n31-n43"/>
<trip id="375" depart="153" from="n19-n3" to="n31-n43"/>
<trip id="376" depart="154" from="n38-n28" to="n31-n43"/>
<trip id="377" depart="154" from="n19-n3" to="n31-n43"/>
<trip id="378" depart="154" from="n19-n3" to="n31-n43"/>
<trip id="379" depart="155" from="n19-n3" to="n31-n43"/>
<trip id="380" depart="156" from="n19-n3" to="n31-n43"/>
<trip id="381" depart="157" from="n19-n3" to="n31-n43"/>
<trip id="382" depart="157" from="n19-n3" to="n31-n43"/>
<trip id="383" depart="157" from="n38-n28" to="n31-n43"/>
<trip id="384" depart="158" from="n19-n3" to="n31-n43"/>
<trip id="385" depart="159" from="n19-n3" to="n13-n27"/>
<trip id="386" depart="159" from="n19-n3" to="n31-n43"/>
<trip id="387" depart="160" from="n19-n3" to="n31-n43"/>
<trip id="388" depart="162" from="n19-n3" to="n31-n43"/>
<trip id="389" depart="162" from="n38-n28" to="n13-n27"/>
<trip id="390" depart="162" from="n38-n28" to="n31-n43"/>
<trip id="391" depart="162" from="n19-n3" to="n31-n43"/>
<trip id="392" depart="163" from="n19-n3" to="n31-n43"/>
<trip id="393" depart="163" from="n38-n28" to="n31-n43"/>
<trip id="394" depart="163" from="n19-n3" to="n31-n43"/>
<trip id="395" depart="164" from="n19-n3" to="n31-n43"/>
<trip id="396" depart="164" from="n19-n3" to="n31-n43"/>
<trip id="397" depart="164" from="n19-n3" to="n31-n43"/>
<trip id="398" depart="164" from="n19-n3" to="n31-n43"/>
<trip id="399" depart="164" from="n38-n28" to="n31-n43"/>
<trip id="400" depart="165" from="n38-n28" to="n31-n43"/>
<trip id="401" depart="165" from="n19-n3" to="n31-n43"/>
<trip id="402" depart="166" from="n38-n28" to="n31-n43"/>
<trip id="403" depart="166" from="n19-n3" to="n31-n43"/>
<trip id="404" depart="166" from="n19-n3" to="n31-n43"/>
<trip id="405" depart="167" from="n38-n28" to="n31-n43"/>
<trip id="406" depart="167" from="n38-n28" to="n31-n43"/>
<trip id="407" depart="167" from="n19-n3" to="n31-n43"/>
<trip id="408" depart="168" from="n19-n3" to="n31-n43"/>
<trip id="409" depart="168" from="n19-n3" to="n31-n43"/>
<trip id="410" depart="168" from="n19-n3" to="n31-n43"/>
<trip id="411" depart="168" from="n19-n3" to="n31-n43"/>
<trip id="412" depart="168" from="n19-n3" to="n31-n43"/>
<trip id="413" depart="168" from="n19-n3" to="n31-n43"/>
<trip id="414" depart="169" from="n19-n3" to="n31-n43"/>
<trip id="415" depart="169" from="n38-n28" to="n31-n43"/>
<trip id="416" depart="169" from="n19-n3" to="n31-n43"/>
<trip id="417" depart="169" from="n38-n28" to="n31-n43"/>
<trip id="418" depart="170" from="n19-n3" to="n13-n27"/>
<trip id="419" depart="170" from="n19-n3" to="n13-n27"/>
<trip id="420" depart="170" from="n19-n3" to="n31-n43"/>
<trip id="421" depart="171" from="n19-n3" to="n31-n43"/>
<trip id="422" depart="171" from="n38-n28" to="n31-n43"/>
<trip id="423" depart="172" from="n38-n28" to="n31-n43"/>
<trip id="424" depart="172" from="n38-n28" to="n31-n43"/>
<trip id="425" depart="173" from="n19-n3" to="n31-n43"/>
<trip id="426" depart="173" from="n19-n3" to="n31-n43"/>
<trip id="427" depart="174" from="n19-n3" to="n31-n43"/>
<trip id="428" depart="174" from="n19-n3" to="n31-n43"/>
<trip id="429" depart="174" from="n19-n3" to="n13-n27"/>
<trip id="430" depart="174" from="n19-n3" to="n13-n27"/>
<trip id="431" depart="175" from="n38-n28" to="n31-n43"/>
<trip id="432" depart="175" from="n19-n3" to="n31-n43"/>
<trip id="433" depart="176" from="n19-n3" to="n31-n43"/>
<trip id="434" depart="176" from="n38-n28" to="n31-n43"/>
<trip id="435" depart="176" from="n19-n3" to="n31-n43"/>
<trip id="436" depart="177" from="n38-n28" to="n31-n43"/>
<trip id="437" depart="177" from="n38-n28" to="n31-n43"/>
<trip id="438" depart="177" from="n19-n3" to="n31-n43"/>
<trip id="439" depart="177" from="n19-n3" to="n31-n43"/>
<trip id="440" depart="178" from="n19-n3" to="n31-n43"/>
<trip id="441" depart="178" from="n19-n3" to="n31-n43"/>
<trip id="442" depart="178" from="n38-n28" to="n13-n27"/>
<trip id="443" depart="178" from="n38-n28" to="n13-n27"/>
<trip id="444" depart="178" from="n19-n3" to="n31-n43"/>
<trip id="445" depart="179" from="n38-n28" to="n13-n27"/>
<trip id="446" depart="179" from="n19-n3" to="n31-n43"/>
<trip id="447" depart="180" from="n19-n3" to="n13-n27"/>
<trip id="448" depart="180" from="n19-n3" to="n31-n43"/>
<trip id="449" depart="180" from="n19-n3" to="n31-n43"/>
<trip id="450" depart="182" from="n19-n3" to="n31-n43"/>
<trip id="451" depart="182" from="n19-n3" to="n31-n43"/>
<trip id="452" depart="182" from="n38-n28" to="n31-n43"/>
<trip id="453" depart="184" from="n19-n3" to="n31-n43"/>
<trip id="454" depart="184" from="n38-n28" to="n31-n43"/>
<trip id="455" depart="184" from="n19-n3" to="n13-n27"/>
<trip id="456" depart="184" from="n38-n28" to="n31-n43"/>
<trip id="457" depart="185" from="n38-n28" to="n13-n27"/>
<trip id="458" depart="185" from="n38-n28" to="n13-n27"/>
<trip id="459" depart="185" from="n38-n28" to="n31-n43"/>
<trip id="460" depart="186" from="n19-n3" to="n31-n43"/>
<trip id="461" depart="186" from="n19-n3" to="n13-n27"/>
<trip id="462" depart="186" from="n19-n3" to="n13-n27"/>
<trip id="463" depart="186" from="n19-n3" to="n13-n27"/>
<trip id="464" depart="187" from="n19-n3" to="n31-n43"/>
<trip id="465" depart="188" from="n38-n28" to="n31-n43"/>
<trip id="466" depart="188" from="n19-n3" to="n31-n43"/>
<trip id="467" depart="189" from="n19-n3" to="n31-n43"/>
<trip id="468" depart="189" from="n38-n28" to="n31-n43"/>
<trip id="469" depart="190" from="n38-n28" to="n31-n43"/>
<trip id="470" depart="190" from="n38-n28" to="n31-n43"/>
<trip id="471" depart="191" from="n19-n3" to="n31-n43"/>
<trip id="472" depart="191" from="n19-n3" to="n31-n43"/>
<trip id="473" depart="191" from="n38-n28" to="n13-n27"/>
<trip id="474" depart="191" from="n38-n28" to="n31-n43"/>
<trip id="475" depart="192" from="n19-n3" to="n31-n43"/>
<trip id="476" depart="193" from="n38-n28" to="n31-n43"/>
<trip id="477" depart="193" from="n19-n3" to="n31-n43"/>
<trip id="478" depart="193" from="n19-n3" to="n31-n43"/>
<trip id="479" depart="193" from="n38-n28" to="n31-n43"/>
<trip id="480" depart="193" from="n19-n3" to="n13-n27"/>
<trip id="481" depart="194" from="n19-n3" to="n31-n43"/>
<trip id="482" depart="194" from="n38-n28" to="n31-n43"/>
<trip id="483" depart="195" from="n19-n3" to="n31-n43"/>
<trip id="484" depart="195" from="n19-n3" to="n31-n43"/>
<trip id="485" depart="195" from="n38-n28" to="n31-n43"/>
<trip id="486" depart="195" from="n38-n28" to="n31-n43"/>
<trip id="487" depart="195" from="n19-n3" to="n31-n43"/>
<trip id="488" depart="196" from="n38-n28" to="n31-n43"/>
<trip id="489" depart="196" from="n19-n3" to="n31-n43"/>
<trip id="490" depart="197" from="n19-n3" to="n31-n43"/>
<trip id="491" depart="197" from="n38-n28" to="n31-n43"/>
<trip id="492" depart="197" from="n38-n28" to="n31-n43"/>
<trip id="493" depart="197" from="n19-n3" to="n31-n43"/>
<trip id="494" depart="198" from="n19-n3" to="n31-n43"/>
<trip id="495" depart="198" from="n19-n3" to="n31-n43"/>
<trip id="496" depart="199" from="n19-n3" to="n31-n43"/>
<trip id="497" depart="199" from="n19-n3" to="n31-n43"/>
<trip id="498" depart="200" from="n19-n3" to="n13-n27"/>
<trip id="499" depart="200" from="n19-n3" to="n31-n43"/>


</routes>