<routes>
    <vType accel="1.0" decel="5.0" id="Car" jmIgnoreKeepClearTime="100.0" maxSpeed="30" length="3" />
        
    <!--emergencyDecel="0.0"-->
    <trip id="0" depart="0" from="n45-n33" to="n54-n19"/>
<trip id="1" depart="1" from="n25-n9" to="n53-n38"/>
<trip id="2" depart="3" from="n27-n51" to="n53-n38"/>
<trip id="3" depart="3" from="n18-n2" to="n9-n25"/>
<trip id="4" depart="3" from="n44-n32" to="n54-n19"/>
<trip id="5" depart="9" from="n38-n53" to="n54-n19"/>
<trip id="6" depart="9" from="n18-n2" to="n53-n38"/>
<trip id="7" depart="9" from="n39-n33" to="n33-n45"/>
<trip id="8" depart="9" from="n40-n29" to="n53-n38"/>
<trip id="9" depart="9" from="n19-n54" to="n1-n17"/>
<trip id="10" depart="10" from="n37-n26" to="n29-n40"/>
<trip id="11" depart="11" from="n38-n53" to="n22-n35"/>
<trip id="12" depart="11" from="n19-n54" to="n53-n38"/>
<trip id="13" depart="12" from="n38-n53" to="n30-n42"/>
<trip id="14" depart="13" from="n27-n51" to="n57-n43"/>
<trip id="15" depart="13" from="n21-n1" to="n33-n39"/>
<trip id="16" depart="14" from="n19-n54" to="n22-n35"/>
<trip id="17" depart="15" from="n43-n57" to="n33-n39"/>
<trip id="18" depart="15" from="n43-n57" to="n53-n38"/>
<trip id="19" depart="17" from="n34-n22" to="n53-n38"/>
<trip id="20" depart="19" from="n35-n22" to="n54-n19"/>
<trip id="21" depart="19" from="n19-n54" to="n57-n43"/>
<trip id="22" depart="20" from="n45-n33" to="n51-n27"/>
<trip id="23" depart="21" from="n43-n57" to="n54-n19"/>
<trip id="24" depart="21" from="n36-n24" to="n53-n38"/>
<trip id="25" depart="22" from="n23-n5" to="n53-n38"/>
<trip id="26" depart="22" from="n19-n54" to="n33-n45"/>
<trip id="27" depart="23" from="n17-n1" to="n53-n38"/>
<trip id="28" depart="24" from="n18-n2" to="n33-n45"/>
<trip id="29" depart="24" from="n41-n29" to="n53-n38"/>
<trip id="30" depart="25" from="n42-n30" to="n4-n20"/>
<trip id="31" depart="25" from="n34-n22" to="n54-n19"/>
<trip id="32" depart="26" from="n20-n4" to="n53-n38"/>
<trip id="33" depart="26" from="n17-n1" to="n57-n43"/>
<trip id="34" depart="27" from="n43-n57" to="n9-n25"/>
<trip id="35" depart="27" from="n41-n29" to="n57-n43"/>
<trip id="36" depart="27" from="n19-n54" to="n57-n43"/>
<trip id="37" depart="28" from="n43-n57" to="n26-n37"/>
<trip id="38" depart="29" from="n19-n54" to="n4-n20"/>
<trip id="39" depart="30" from="n19-n54" to="n30-n42"/>
<trip id="40" depart="31" from="n20-n4" to="n5-n23"/>
<trip id="41" depart="31" from="n19-n54" to="n57-n43"/>
<trip id="42" depart="32" from="n37-n26" to="n57-n43"/>
<trip id="43" depart="32" from="n38-n53" to="n32-n44"/>
<trip id="44" depart="33" from="n25-n9" to="n54-n19"/>
<trip id="45" depart="34" from="n41-n29" to="n33-n45"/>
<trip id="46" depart="34" from="n27-n51" to="n53-n38"/>
<trip id="47" depart="36" from="n43-n57" to="n33-n39"/>
<trip id="48" depart="36" from="n35-n22" to="n54-n19"/>
<trip id="49" depart="37" from="n43-n57" to="n51-n27"/>
<trip id="50" depart="37" from="n38-n53" to="n54-n19"/>
<trip id="51" depart="38" from="n21-n1" to="n54-n19"/>
<trip id="52" depart="38" from="n44-n32" to="n29-n41"/>
<trip id="53" depart="38" from="n27-n51" to="n33-n45"/>
<trip id="54" depart="38" from="n37-n26" to="n57-n43"/>
<trip id="55" depart="38" from="n44-n32" to="n54-n19"/>
<trip id="56" depart="39" from="n17-n1" to="n51-n27"/>
<trip id="57" depart="40" from="n38-n53" to="n9-n25"/>
<trip id="58" depart="40" from="n25-n9" to="n57-n43"/>
<trip id="59" depart="40" from="n19-n54" to="n53-n38"/>
<trip id="60" depart="41" from="n36-n24" to="n57-n43"/>
<trip id="61" depart="41" from="n27-n51" to="n57-n43"/>
<trip id="62" depart="41" from="n19-n54" to="n9-n25"/>
<trip id="63" depart="43" from="n20-n4" to="n9-n25"/>
<trip id="64" depart="43" from="n41-n29" to="n53-n38"/>
<trip id="65" depart="44" from="n38-n53" to="n24-n36"/>
<trip id="66" depart="46" from="n35-n22" to="n29-n41"/>
<trip id="67" depart="47" from="n35-n22" to="n1-n21"/>
<trip id="68" depart="48" from="n27-n51" to="n1-n21"/>
<trip id="69" depart="49" from="n42-n30" to="n57-n43"/>
<trip id="70" depart="49" from="n27-n51" to="n53-n38"/>
<trip id="71" depart="49" from="n41-n29" to="n4-n20"/>
<trip id="72" depart="49" from="n38-n53" to="n2-n18"/>
<trip id="73" depart="49" from="n38-n53" to="n30-n42"/>
<trip id="74" depart="49" from="n45-n33" to="n1-n21"/>
<trip id="75" depart="51" from="n38-n53" to="n22-n34"/>
<trip id="76" depart="51" from="n37-n26" to="n33-n45"/>
<trip id="77" depart="51" from="n19-n54" to="n5-n23"/>
<trip id="78" depart="51" from="n38-n53" to="n1-n21"/>
<trip id="79" depart="53" from="n19-n54" to="n53-n38"/>
<trip id="80" depart="55" from="n43-n57" to="n26-n37"/>
<trip id="81" depart="55" from="n43-n57" to="n30-n42"/>
<trip id="82" depart="56" from="n18-n2" to="n53-n38"/>
<trip id="83" depart="58" from="n40-n29" to="n54-n19"/>
<trip id="84" depart="59" from="n39-n33" to="n1-n21"/>
<trip id="85" depart="59" from="n27-n51" to="n57-n43"/>
<trip id="86" depart="59" from="n27-n51" to="n54-n19"/>
<trip id="87" depart="59" from="n27-n51" to="n29-n41"/>
<trip id="88" depart="61" from="n43-n57" to="n54-n19"/>
<trip id="89" depart="61" from="n38-n53" to="n57-n43"/>
<trip id="90" depart="61" from="n41-n29" to="n51-n27"/>
<trip id="91" depart="61" from="n27-n51" to="n57-n43"/>
<trip id="92" depart="62" from="n36-n24" to="n22-n35"/>
<trip id="93" depart="62" from="n39-n33" to="n57-n43"/>
<trip id="94" depart="63" from="n20-n4" to="n22-n34"/>
<trip id="95" depart="63" from="n39-n33" to="n2-n18"/>
<trip id="96" depart="63" from="n40-n29" to="n33-n39"/>
<trip id="97" depart="64" from="n43-n57" to="n2-n18"/>
<trip id="98" depart="64" from="n35-n22" to="n53-n38"/>
<trip id="99" depart="65" from="n42-n30" to="n53-n38"/>
<trip id="100" depart="66" from="n44-n32" to="n57-n43"/>
<trip id="101" depart="66" from="n45-n33" to="n51-n27"/>
<trip id="102" depart="67" from="n23-n5" to="n53-n38"/>
<trip id="103" depart="69" from="n27-n51" to="n22-n34"/>
<trip id="104" depart="69" from="n27-n51" to="n53-n38"/>
<trip id="105" depart="69" from="n38-n53" to="n54-n19"/>
<trip id="106" depart="70" from="n35-n22" to="n51-n27"/>
<trip id="107" depart="70" from="n19-n54" to="n1-n17"/>
<trip id="108" depart="73" from="n19-n54" to="n57-n43"/>
<trip id="109" depart="73" from="n43-n57" to="n4-n20"/>
<trip id="110" depart="73" from="n44-n32" to="n1-n17"/>
<trip id="111" depart="73" from="n19-n54" to="n51-n27"/>
<trip id="112" depart="73" from="n43-n57" to="n53-n38"/>
<trip id="113" depart="74" from="n43-n57" to="n53-n38"/>
<trip id="114" depart="74" from="n34-n22" to="n1-n17"/>
<trip id="115" depart="74" from="n27-n51" to="n1-n17"/>
<trip id="116" depart="75" from="n44-n32" to="n51-n27"/>
<trip id="117" depart="76" from="n27-n51" to="n1-n17"/>
<trip id="118" depart="76" from="n36-n24" to="n57-n43"/>
<trip id="119" depart="76" from="n43-n57" to="n9-n25"/>
<trip id="120" depart="76" from="n43-n57" to="n29-n41"/>
<trip id="121" depart="77" from="n38-n53" to="n54-n19"/>
<trip id="122" depart="78" from="n34-n22" to="n5-n23"/>
<trip id="123" depart="78" from="n34-n22" to="n33-n39"/>
<trip id="124" depart="78" from="n23-n5" to="n54-n19"/>
<trip id="125" depart="79" from="n38-n53" to="n54-n19"/>
<trip id="126" depart="79" from="n40-n29" to="n33-n39"/>
<trip id="127" depart="80" from="n36-n24" to="n29-n41"/>
<trip id="128" depart="83" from="n17-n1" to="n53-n38"/>
<trip id="129" depart="83" from="n39-n33" to="n53-n38"/>
<trip id="130" depart="84" from="n37-n26" to="n57-n43"/>
<trip id="131" depart="85" from="n36-n24" to="n57-n43"/>
<trip id="132" depart="86" from="n27-n51" to="n30-n42"/>
<trip id="133" depart="86" from="n38-n53" to="n54-n19"/>
<trip id="134" depart="86" from="n44-n32" to="n51-n27"/>
<trip id="135" depart="88" from="n36-n24" to="n57-n43"/>
<trip id="136" depart="88" from="n43-n57" to="n22-n34"/>
<trip id="137" depart="88" from="n38-n53" to="n30-n42"/>
<trip id="138" depart="90" from="n20-n4" to="n51-n27"/>
<trip id="139" depart="90" from="n43-n57" to="n26-n37"/>
<trip id="140" depart="91" from="n17-n1" to="n53-n38"/>
<trip id="141" depart="92" from="n25-n9" to="n30-n42"/>
<trip id="142" depart="93" from="n43-n57" to="n33-n39"/>
<trip id="143" depart="94" from="n23-n5" to="n54-n19"/>
<trip id="144" depart="94" from="n38-n53" to="n22-n34"/>
<trip id="145" depart="95" from="n44-n32" to="n57-n43"/>
<trip id="146" depart="95" from="n43-n57" to="n2-n18"/>
<trip id="147" depart="96" from="n27-n51" to="n22-n34"/>
<trip id="148" depart="97" from="n43-n57" to="n33-n45"/>
<trip id="149" depart="97" from="n39-n33" to="n29-n40"/>
<trip id="150" depart="98" from="n34-n22" to="n33-n45"/>
<trip id="151" depart="98" from="n43-n57" to="n2-n18"/>
<trip id="152" depart="99" from="n35-n22" to="n9-n25"/>
<trip id="153" depart="100" from="n35-n22" to="n22-n34"/>
<trip id="154" depart="100" from="n38-n53" to="n29-n41"/>
<trip id="155" depart="101" from="n25-n9" to="n54-n19"/>
<trip id="156" depart="103" from="n19-n54" to="n53-n38"/>
<trip id="157" depart="103" from="n27-n51" to="n9-n25"/>
<trip id="158" depart="105" from="n43-n57" to="n51-n27"/>
<trip id="159" depart="105" from="n41-n29" to="n51-n27"/>
<trip id="160" depart="107" from="n27-n51" to="n33-n39"/>
<trip id="161" depart="107" from="n43-n57" to="n24-n36"/>
<trip id="162" depart="107" from="n27-n51" to="n54-n19"/>
<trip id="163" depart="107" from="n43-n57" to="n32-n44"/>
<trip id="164" depart="107" from="n27-n51" to="n54-n19"/>
<trip id="165" depart="111" from="n45-n33" to="n57-n43"/>
<trip id="166" depart="112" from="n25-n9" to="n54-n19"/>
<trip id="167" depart="113" from="n34-n22" to="n54-n19"/>
<trip id="168" depart="113" from="n45-n33" to="n53-n38"/>
<trip id="169" depart="114" from="n27-n51" to="n1-n21"/>
<trip id="170" depart="116" from="n38-n53" to="n33-n45"/>
<trip id="171" depart="116" from="n43-n57" to="n51-n27"/>
<trip id="172" depart="117" from="n34-n22" to="n51-n27"/>
<trip id="173" depart="118" from="n27-n51" to="n57-n43"/>
<trip id="174" depart="119" from="n25-n9" to="n53-n38"/>
<trip id="175" depart="120" from="n36-n24" to="n53-n38"/>
<trip id="176" depart="122" from="n38-n53" to="n57-n43"/>
<trip id="177" depart="122" from="n25-n9" to="n29-n40"/>
<trip id="178" depart="124" from="n27-n51" to="n29-n41"/>
<trip id="179" depart="124" from="n38-n53" to="n51-n27"/>
<trip id="180" depart="125" from="n19-n54" to="n1-n21"/>
<trip id="181" depart="126" from="n19-n54" to="n1-n17"/>
<trip id="182" depart="126" from="n17-n1" to="n1-n21"/>
<trip id="183" depart="126" from="n19-n54" to="n26-n37"/>
<trip id="184" depart="127" from="n45-n33" to="n53-n38"/>
<trip id="185" depart="127" from="n23-n5" to="n24-n36"/>
<trip id="186" depart="127" from="n19-n54" to="n1-n21"/>
<trip id="187" depart="127" from="n19-n54" to="n1-n17"/>
<trip id="188" depart="128" from="n19-n54" to="n22-n34"/>
<trip id="189" depart="129" from="n39-n33" to="n57-n43"/>
<trip id="190" depart="129" from="n23-n5" to="n1-n17"/>
<trip id="191" depart="129" from="n18-n2" to="n54-n19"/>
<trip id="192" depart="130" from="n36-n24" to="n30-n42"/>
<trip id="193" depart="130" from="n38-n53" to="n51-n27"/>
<trip id="194" depart="131" from="n20-n4" to="n54-n19"/>
<trip id="195" depart="132" from="n19-n54" to="n57-n43"/>
<trip id="196" depart="133" from="n21-n1" to="n22-n35"/>
<trip id="197" depart="133" from="n38-n53" to="n2-n18"/>
<trip id="198" depart="134" from="n38-n53" to="n54-n19"/>
<trip id="199" depart="134" from="n17-n1" to="n51-n27"/>
<trip id="200" depart="135" from="n38-n53" to="n24-n36"/>
<trip id="201" depart="135" from="n43-n57" to="n54-n19"/>
<trip id="202" depart="136" from="n38-n53" to="n22-n35"/>
<trip id="203" depart="137" from="n37-n26" to="n1-n21"/>
<trip id="204" depart="137" from="n43-n57" to="n26-n37"/>
<trip id="205" depart="138" from="n19-n54" to="n57-n43"/>
<trip id="206" depart="139" from="n43-n57" to="n53-n38"/>
<trip id="207" depart="139" from="n43-n57" to="n1-n17"/>
<trip id="208" depart="139" from="n41-n29" to="n22-n35"/>
<trip id="209" depart="141" from="n44-n32" to="n54-n19"/>
<trip id="210" depart="141" from="n39-n33" to="n33-n45"/>
<trip id="211" depart="142" from="n18-n2" to="n54-n19"/>
<trip id="212" depart="143" from="n25-n9" to="n57-n43"/>
<trip id="213" depart="143" from="n42-n30" to="n57-n43"/>
<trip id="214" depart="144" from="n37-n26" to="n54-n19"/>
<trip id="215" depart="144" from="n17-n1" to="n57-n43"/>
<trip id="216" depart="144" from="n36-n24" to="n1-n17"/>
<trip id="217" depart="145" from="n38-n53" to="n57-n43"/>
<trip id="218" depart="146" from="n43-n57" to="n4-n20"/>
<trip id="219" depart="147" from="n40-n29" to="n51-n27"/>
<trip id="220" depart="147" from="n17-n1" to="n54-n19"/>
<trip id="221" depart="147" from="n34-n22" to="n54-n19"/>
<trip id="222" depart="148" from="n19-n54" to="n53-n38"/>
<trip id="223" depart="151" from="n37-n26" to="n22-n34"/>
<trip id="224" depart="152" from="n43-n57" to="n53-n38"/>
<trip id="225" depart="152" from="n42-n30" to="n57-n43"/>
<trip id="226" depart="152" from="n40-n29" to="n24-n36"/>
<trip id="227" depart="152" from="n19-n54" to="n29-n40"/>
<trip id="228" depart="153" from="n27-n51" to="n53-n38"/>
<trip id="229" depart="154" from="n19-n54" to="n32-n44"/>
<trip id="230" depart="154" from="n19-n54" to="n51-n27"/>
<trip id="231" depart="155" from="n20-n4" to="n57-n43"/>
<trip id="232" depart="155" from="n34-n22" to="n53-n38"/>
<trip id="233" depart="155" from="n38-n53" to="n24-n36"/>
<trip id="234" depart="155" from="n36-n24" to="n51-n27"/>
<trip id="235" depart="155" from="n20-n4" to="n54-n19"/>
<trip id="236" depart="156" from="n27-n51" to="n2-n18"/>
<trip id="237" depart="157" from="n20-n4" to="n53-n38"/>
<trip id="238" depart="157" from="n19-n54" to="n53-n38"/>
<trip id="239" depart="157" from="n19-n54" to="n57-n43"/>
<trip id="240" depart="158" from="n21-n1" to="n57-n43"/>
<trip id="241" depart="158" from="n44-n32" to="n22-n35"/>
<trip id="242" depart="160" from="n42-n30" to="n54-n19"/>
<trip id="243" depart="160" from="n43-n57" to="n53-n38"/>
<trip id="244" depart="160" from="n18-n2" to="n54-n19"/>
<trip id="245" depart="160" from="n20-n4" to="n53-n38"/>
<trip id="246" depart="160" from="n19-n54" to="n51-n27"/>
<trip id="247" depart="161" from="n27-n51" to="n57-n43"/>
<trip id="248" depart="161" from="n20-n4" to="n54-n19"/>
<trip id="249" depart="162" from="n21-n1" to="n2-n18"/>
<trip id="250" depart="162" from="n27-n51" to="n57-n43"/>
<trip id="251" depart="162" from="n34-n22" to="n53-n38"/>
<trip id="252" depart="162" from="n17-n1" to="n32-n44"/>
<trip id="253" depart="165" from="n39-n33" to="n54-n19"/>
<trip id="254" depart="165" from="n17-n1" to="n33-n45"/>
<trip id="255" depart="165" from="n41-n29" to="n51-n27"/>
<trip id="256" depart="166" from="n20-n4" to="n54-n19"/>
<trip id="257" depart="166" from="n41-n29" to="n32-n44"/>
<trip id="258" depart="167" from="n19-n54" to="n1-n17"/>
<trip id="259" depart="168" from="n21-n1" to="n57-n43"/>
<trip id="260" depart="169" from="n19-n54" to="n2-n18"/>
<trip id="261" depart="170" from="n18-n2" to="n51-n27"/>
<trip id="262" depart="171" from="n43-n57" to="n54-n19"/>
<trip id="263" depart="171" from="n41-n29" to="n57-n43"/>
<trip id="264" depart="171" from="n19-n54" to="n53-n38"/>
<trip id="265" depart="171" from="n43-n57" to="n4-n20"/>
<trip id="266" depart="171" from="n19-n54" to="n53-n38"/>
<trip id="267" depart="172" from="n21-n1" to="n53-n38"/>
<trip id="268" depart="173" from="n19-n54" to="n24-n36"/>
<trip id="269" depart="175" from="n27-n51" to="n53-n38"/>
<trip id="270" depart="175" from="n34-n22" to="n53-n38"/>
<trip id="271" depart="176" from="n43-n57" to="n51-n27"/>
<trip id="272" depart="176" from="n27-n51" to="n57-n43"/>
<trip id="273" depart="177" from="n19-n54" to="n57-n43"/>
<trip id="274" depart="178" from="n19-n54" to="n5-n23"/>
<trip id="275" depart="180" from="n18-n2" to="n57-n43"/>
<trip id="276" depart="180" from="n43-n57" to="n32-n44"/>
<trip id="277" depart="180" from="n18-n2" to="n57-n43"/>
<trip id="278" depart="181" from="n40-n29" to="n54-n19"/>
<trip id="279" depart="182" from="n34-n22" to="n51-n27"/>
<trip id="280" depart="183" from="n19-n54" to="n33-n39"/>
<trip id="281" depart="184" from="n43-n57" to="n1-n21"/>
<trip id="282" depart="184" from="n34-n22" to="n51-n27"/>
<trip id="283" depart="185" from="n43-n57" to="n29-n41"/>
<trip id="284" depart="185" from="n43-n57" to="n33-n45"/>
<trip id="285" depart="187" from="n34-n22" to="n53-n38"/>
<trip id="286" depart="187" from="n43-n57" to="n53-n38"/>
<trip id="287" depart="188" from="n38-n53" to="n33-n45"/>
<trip id="288" depart="189" from="n41-n29" to="n22-n35"/>
<trip id="289" depart="189" from="n34-n22" to="n53-n38"/>
<trip id="290" depart="190" from="n25-n9" to="n32-n44"/>
<trip id="291" depart="190" from="n27-n51" to="n1-n21"/>
<trip id="292" depart="190" from="n43-n57" to="n54-n19"/>
<trip id="293" depart="190" from="n43-n57" to="n4-n20"/>
<trip id="294" depart="190" from="n19-n54" to="n57-n43"/>
<trip id="295" depart="191" from="n27-n51" to="n22-n35"/>
<trip id="296" depart="192" from="n27-n51" to="n5-n23"/>
<trip id="297" depart="192" from="n41-n29" to="n32-n44"/>
<trip id="298" depart="193" from="n25-n9" to="n57-n43"/>
<trip id="299" depart="193" from="n27-n51" to="n29-n40"/>
<trip id="300" depart="193" from="n27-n51" to="n54-n19"/>
<trip id="301" depart="194" from="n38-n53" to="n51-n27"/>
<trip id="302" depart="195" from="n27-n51" to="n33-n39"/>
<trip id="303" depart="195" from="n20-n4" to="n54-n19"/>
<trip id="304" depart="195" from="n43-n57" to="n54-n19"/>
<trip id="305" depart="195" from="n43-n57" to="n33-n39"/>
<trip id="306" depart="195" from="n39-n33" to="n22-n35"/>
<trip id="307" depart="195" from="n27-n51" to="n5-n23"/>
<trip id="308" depart="196" from="n18-n2" to="n1-n21"/>
<trip id="309" depart="196" from="n43-n57" to="n33-n39"/>
<trip id="310" depart="196" from="n38-n53" to="n5-n23"/>
<trip id="311" depart="197" from="n35-n22" to="n32-n44"/>
<trip id="312" depart="198" from="n19-n54" to="n30-n42"/>
<trip id="313" depart="199" from="n43-n57" to="n26-n37"/>
<trip id="314" depart="199" from="n21-n1" to="n33-n45"/>
<trip id="315" depart="200" from="n37-n26" to="n24-n36"/>
<trip id="316" depart="200" from="n19-n54" to="n51-n27"/>
<trip id="317" depart="200" from="n19-n54" to="n9-n25"/>
<trip id="318" depart="201" from="n20-n4" to="n51-n27"/>
<trip id="319" depart="202" from="n38-n53" to="n54-n19"/>
<trip id="320" depart="202" from="n20-n4" to="n9-n25"/>
<trip id="321" depart="203" from="n44-n32" to="n1-n17"/>
<trip id="322" depart="203" from="n37-n26" to="n5-n23"/>
<trip id="323" depart="204" from="n43-n57" to="n22-n34"/>
<trip id="324" depart="204" from="n25-n9" to="n51-n27"/>
<trip id="325" depart="205" from="n19-n54" to="n57-n43"/>
<trip id="326" depart="206" from="n43-n57" to="n32-n44"/>
<trip id="327" depart="206" from="n45-n33" to="n30-n42"/>
<trip id="328" depart="207" from="n39-n33" to="n53-n38"/>
<trip id="329" depart="208" from="n41-n29" to="n54-n19"/>
<trip id="330" depart="208" from="n19-n54" to="n57-n43"/>
<trip id="331" depart="209" from="n19-n54" to="n22-n35"/>
<trip id="332" depart="209" from="n38-n53" to="n51-n27"/>
<trip id="333" depart="210" from="n20-n4" to="n57-n43"/>
<trip id="334" depart="210" from="n43-n57" to="n24-n36"/>
<trip id="335" depart="210" from="n38-n53" to="n33-n39"/>
<trip id="336" depart="211" from="n41-n29" to="n57-n43"/>
<trip id="337" depart="211" from="n19-n54" to="n30-n42"/>
<trip id="338" depart="211" from="n43-n57" to="n53-n38"/>
<trip id="339" depart="212" from="n39-n33" to="n51-n27"/>
<trip id="340" depart="213" from="n42-n30" to="n57-n43"/>
<trip id="341" depart="214" from="n20-n4" to="n57-n43"/>
<trip id="342" depart="215" from="n43-n57" to="n54-n19"/>
<trip id="343" depart="216" from="n37-n26" to="n29-n40"/>
<trip id="344" depart="216" from="n17-n1" to="n22-n34"/>
<trip id="345" depart="217" from="n38-n53" to="n54-n19"/>
<trip id="346" depart="217" from="n40-n29" to="n1-n21"/>
<trip id="347" depart="217" from="n42-n30" to="n33-n45"/>
<trip id="348" depart="219" from="n19-n54" to="n57-n43"/>
<trip id="349" depart="220" from="n23-n5" to="n2-n18"/>
<trip id="350" depart="221" from="n17-n1" to="n53-n38"/>
<trip id="351" depart="221" from="n43-n57" to="n29-n41"/>
<trip id="352" depart="221" from="n18-n2" to="n24-n36"/>
<trip id="353" depart="222" from="n25-n9" to="n5-n23"/>
<trip id="354" depart="224" from="n36-n24" to="n51-n27"/>
<trip id="355" depart="224" from="n43-n57" to="n32-n44"/>
<trip id="356" depart="226" from="n27-n51" to="n57-n43"/>
<trip id="357" depart="226" from="n43-n57" to="n54-n19"/>
<trip id="358" depart="227" from="n43-n57" to="n1-n17"/>
<trip id="359" depart="227" from="n38-n53" to="n22-n34"/>
<trip id="360" depart="228" from="n45-n33" to="n51-n27"/>
<trip id="361" depart="228" from="n21-n1" to="n33-n45"/>
<trip id="362" depart="228" from="n38-n53" to="n30-n42"/>
<trip id="363" depart="228" from="n38-n53" to="n1-n17"/>
<trip id="364" depart="229" from="n27-n51" to="n57-n43"/>
<trip id="365" depart="229" from="n39-n33" to="n30-n42"/>
<trip id="366" depart="230" from="n27-n51" to="n5-n23"/>
<trip id="367" depart="230" from="n40-n29" to="n57-n43"/>
<trip id="368" depart="230" from="n19-n54" to="n57-n43"/>
<trip id="369" depart="230" from="n27-n51" to="n22-n34"/>
<trip id="370" depart="231" from="n39-n33" to="n29-n41"/>
<trip id="371" depart="231" from="n43-n57" to="n54-n19"/>
<trip id="372" depart="232" from="n38-n53" to="n51-n27"/>
<trip id="373" depart="232" from="n23-n5" to="n22-n34"/>
<trip id="374" depart="234" from="n38-n53" to="n51-n27"/>
<trip id="375" depart="234" from="n23-n5" to="n54-n19"/>
<trip id="376" depart="236" from="n43-n57" to="n32-n44"/>
<trip id="377" depart="237" from="n43-n57" to="n22-n35"/>
<trip id="378" depart="238" from="n43-n57" to="n51-n27"/>
<trip id="379" depart="239" from="n43-n57" to="n4-n20"/>
<trip id="380" depart="241" from="n43-n57" to="n51-n27"/>
<trip id="381" depart="242" from="n35-n22" to="n9-n25"/>
<trip id="382" depart="243" from="n41-n29" to="n51-n27"/>
<trip id="383" depart="244" from="n36-n24" to="n51-n27"/>
<trip id="384" depart="245" from="n19-n54" to="n51-n27"/>
<trip id="385" depart="245" from="n43-n57" to="n2-n18"/>
<trip id="386" depart="245" from="n27-n51" to="n54-n19"/>
<trip id="387" depart="245" from="n17-n1" to="n30-n42"/>
<trip id="388" depart="247" from="n35-n22" to="n51-n27"/>
<trip id="389" depart="247" from="n38-n53" to="n54-n19"/>
<trip id="390" depart="247" from="n19-n54" to="n4-n20"/>
<trip id="391" depart="248" from="n43-n57" to="n5-n23"/>
<trip id="392" depart="250" from="n43-n57" to="n32-n44"/>
<trip id="393" depart="250" from="n21-n1" to="n57-n43"/>
<trip id="394" depart="250" from="n39-n33" to="n9-n25"/>
<trip id="395" depart="251" from="n42-n30" to="n51-n27"/>
<trip id="396" depart="252" from="n43-n57" to="n1-n21"/>
<trip id="397" depart="252" from="n19-n54" to="n24-n36"/>
<trip id="398" depart="252" from="n40-n29" to="n32-n44"/>
<trip id="399" depart="253" from="n41-n29" to="n33-n45"/>
<trip id="400" depart="253" from="n39-n33" to="n4-n20"/>
<trip id="401" depart="254" from="n43-n57" to="n29-n41"/>
<trip id="402" depart="254" from="n40-n29" to="n1-n21"/>
<trip id="403" depart="255" from="n34-n22" to="n1-n17"/>
<trip id="404" depart="255" from="n34-n22" to="n51-n27"/>
<trip id="405" depart="255" from="n44-n32" to="n2-n18"/>
<trip id="406" depart="256" from="n43-n57" to="n53-n38"/>
<trip id="407" depart="259" from="n27-n51" to="n22-n35"/>
<trip id="408" depart="259" from="n19-n54" to="n53-n38"/>
<trip id="409" depart="260" from="n39-n33" to="n32-n44"/>
<trip id="410" depart="261" from="n45-n33" to="n33-n39"/>
<trip id="411" depart="264" from="n44-n32" to="n26-n37"/>
<trip id="412" depart="267" from="n27-n51" to="n1-n17"/>
<trip id="413" depart="267" from="n38-n53" to="n22-n34"/>
<trip id="414" depart="267" from="n21-n1" to="n54-n19"/>
<trip id="415" depart="267" from="n27-n51" to="n54-n19"/>
<trip id="416" depart="270" from="n42-n30" to="n54-n19"/>
<trip id="417" depart="270" from="n39-n33" to="n57-n43"/>
<trip id="418" depart="271" from="n43-n57" to="n53-n38"/>
<trip id="419" depart="271" from="n20-n4" to="n54-n19"/>
<trip id="420" depart="271" from="n25-n9" to="n30-n42"/>
<trip id="421" depart="271" from="n27-n51" to="n32-n44"/>
<trip id="422" depart="272" from="n42-n30" to="n1-n17"/>
<trip id="423" depart="272" from="n38-n53" to="n22-n34"/>
<trip id="424" depart="273" from="n43-n57" to="n5-n23"/>
<trip id="425" depart="274" from="n43-n57" to="n29-n41"/>
<trip id="426" depart="274" from="n23-n5" to="n57-n43"/>
<trip id="427" depart="275" from="n45-n33" to="n57-n43"/>
<trip id="428" depart="275" from="n34-n22" to="n54-n19"/>
<trip id="429" depart="276" from="n27-n51" to="n24-n36"/>
<trip id="430" depart="276" from="n34-n22" to="n51-n27"/>
<trip id="431" depart="277" from="n35-n22" to="n22-n34"/>
<trip id="432" depart="278" from="n45-n33" to="n57-n43"/>
<trip id="433" depart="278" from="n38-n53" to="n1-n21"/>
<trip id="434" depart="279" from="n27-n51" to="n53-n38"/>
<trip id="435" depart="279" from="n43-n57" to="n53-n38"/>
<trip id="436" depart="280" from="n39-n33" to="n53-n38"/>
<trip id="437" depart="281" from="n38-n53" to="n29-n40"/>
<trip id="438" depart="282" from="n36-n24" to="n32-n44"/>
<trip id="439" depart="282" from="n36-n24" to="n9-n25"/>
<trip id="440" depart="283" from="n44-n32" to="n24-n36"/>
<trip id="441" depart="283" from="n19-n54" to="n1-n17"/>
<trip id="442" depart="284" from="n27-n51" to="n53-n38"/>
<trip id="443" depart="284" from="n19-n54" to="n53-n38"/>
<trip id="444" depart="287" from="n39-n33" to="n51-n27"/>
<trip id="445" depart="289" from="n39-n33" to="n53-n38"/>
<trip id="446" depart="289" from="n23-n5" to="n2-n18"/>
<trip id="447" depart="289" from="n37-n26" to="n24-n36"/>
<trip id="448" depart="290" from="n41-n29" to="n26-n37"/>
<trip id="449" depart="290" from="n43-n57" to="n54-n19"/>
<trip id="450" depart="290" from="n27-n51" to="n33-n45"/>
<trip id="451" depart="291" from="n38-n53" to="n57-n43"/>
<trip id="452" depart="291" from="n18-n2" to="n29-n41"/>
<trip id="453" depart="291" from="n38-n53" to="n24-n36"/>
<trip id="454" depart="294" from="n34-n22" to="n57-n43"/>
<trip id="455" depart="294" from="n45-n33" to="n51-n27"/>
<trip id="456" depart="296" from="n34-n22" to="n51-n27"/>
<trip id="457" depart="296" from="n44-n32" to="n1-n21"/>
<trip id="458" depart="298" from="n36-n24" to="n53-n38"/>
<trip id="459" depart="299" from="n34-n22" to="n24-n36"/>
<trip id="460" depart="299" from="n43-n57" to="n51-n27"/>
<trip id="461" depart="299" from="n27-n51" to="n54-n19"/>
<trip id="462" depart="299" from="n36-n24" to="n54-n19"/>
<trip id="463" depart="301" from="n21-n1" to="n26-n37"/>
<trip id="464" depart="302" from="n25-n9" to="n22-n35"/>
<trip id="465" depart="302" from="n19-n54" to="n26-n37"/>
<trip id="466" depart="302" from="n17-n1" to="n30-n42"/>
<trip id="467" depart="304" from="n19-n54" to="n1-n17"/>
<trip id="468" depart="304" from="n43-n57" to="n51-n27"/>
<trip id="469" depart="304" from="n18-n2" to="n57-n43"/>
<trip id="470" depart="304" from="n17-n1" to="n22-n34"/>
<trip id="471" depart="304" from="n23-n5" to="n53-n38"/>
<trip id="472" depart="305" from="n25-n9" to="n32-n44"/>
<trip id="473" depart="306" from="n43-n57" to="n54-n19"/>
<trip id="474" depart="306" from="n34-n22" to="n33-n39"/>
<trip id="475" depart="308" from="n27-n51" to="n33-n45"/>
<trip id="476" depart="308" from="n27-n51" to="n22-n35"/>
<trip id="477" depart="308" from="n18-n2" to="n51-n27"/>
<trip id="478" depart="308" from="n38-n53" to="n9-n25"/>
<trip id="479" depart="308" from="n23-n5" to="n32-n44"/>
<trip id="480" depart="308" from="n21-n1" to="n32-n44"/>
<trip id="481" depart="310" from="n43-n57" to="n51-n27"/>
<trip id="482" depart="311" from="n38-n53" to="n22-n34"/>
<trip id="483" depart="311" from="n27-n51" to="n2-n18"/>
<trip id="484" depart="311" from="n40-n29" to="n51-n27"/>
<trip id="485" depart="312" from="n19-n54" to="n51-n27"/>
<trip id="486" depart="313" from="n45-n33" to="n57-n43"/>
<trip id="487" depart="313" from="n19-n54" to="n29-n41"/>
<trip id="488" depart="314" from="n43-n57" to="n2-n18"/>
<trip id="489" depart="315" from="n38-n53" to="n26-n37"/>
<trip id="490" depart="315" from="n19-n54" to="n2-n18"/>
<trip id="491" depart="316" from="n19-n54" to="n51-n27"/>
<trip id="492" depart="316" from="n43-n57" to="n54-n19"/>
<trip id="493" depart="317" from="n35-n22" to="n33-n39"/>
<trip id="494" depart="319" from="n38-n53" to="n26-n37"/>
<trip id="495" depart="322" from="n20-n4" to="n9-n25"/>
<trip id="496" depart="323" from="n25-n9" to="n54-n19"/>
<trip id="497" depart="323" from="n27-n51" to="n54-n19"/>
<trip id="498" depart="323" from="n43-n57" to="n5-n23"/>
<trip id="499" depart="324" from="n35-n22" to="n33-n39"/>
<trip id="500" depart="324" from="n20-n4" to="n57-n43"/>
<trip id="501" depart="325" from="n27-n51" to="n57-n43"/>
<trip id="502" depart="325" from="n38-n53" to="n4-n20"/>
<trip id="503" depart="326" from="n38-n53" to="n54-n19"/>
<trip id="504" depart="326" from="n20-n4" to="n54-n19"/>
<trip id="505" depart="327" from="n19-n54" to="n51-n27"/>
<trip id="506" depart="327" from="n42-n30" to="n4-n20"/>
<trip id="507" depart="327" from="n44-n32" to="n54-n19"/>
<trip id="508" depart="328" from="n43-n57" to="n29-n41"/>
<trip id="509" depart="329" from="n19-n54" to="n1-n21"/>
<trip id="510" depart="329" from="n43-n57" to="n51-n27"/>
<trip id="511" depart="329" from="n43-n57" to="n51-n27"/>
<trip id="512" depart="329" from="n36-n24" to="n57-n43"/>
<trip id="513" depart="330" from="n43-n57" to="n30-n42"/>
<trip id="514" depart="330" from="n27-n51" to="n54-n19"/>
<trip id="515" depart="330" from="n35-n22" to="n22-n34"/>
<trip id="516" depart="330" from="n38-n53" to="n57-n43"/>
<trip id="517" depart="331" from="n38-n53" to="n54-n19"/>
<trip id="518" depart="334" from="n17-n1" to="n2-n18"/>
<trip id="519" depart="335" from="n43-n57" to="n54-n19"/>
<trip id="520" depart="335" from="n41-n29" to="n53-n38"/>
<trip id="521" depart="335" from="n43-n57" to="n54-n19"/>